
                              +++++++++++++++++++++++++++++++++++++++++++++++++++++++++++++++++++++++
                              +                                                                     +
                              +                               MT3DMS                                +
                              +             A Modular 3D Multi-Species Transport Model              +
                              +    For Simulation of Advection, Dispersion and Chemical Reactions   +
                              +                of Contaminants in Groundwater Systems               +
                              +                                                                     +
                              +++++++++++++++++++++++++++++++++++++++++++++++++++++++++++++++++++++++

  ----- 
 | M T | GMS MT3D Simulation                                                             
 | 3 D | 08 October 2017                                                                 
  ----- 
 THE TRANSPORT MODEL CONSISTS OF     4 LAYER(S)  231 ROW(S)  259 COLUMN(S)
 NUMBER OF STRESS PERIOD(S) FOR TRANSPORT SIMULATION =    3
 NUMBER OF ALL COMPONENTS INCLUDED IN SIMULATION =    4
 NUMBER OF MOBILE COMPONENTS INCLUDED IN SIMULATION =    4
 UNIT FOR TIME IS    d;  UNIT FOR LENGTH IS    m;  UNIT FOR MASS IS   mg
 OPTIONAL PACKAGES INCLUDED IN CURRENT SIMULATION:
  o ADV   ON UNIT  2
  o DSP   ON UNIT  3
  o SSM   ON UNIT  4
  o GCG   ON UNIT  9
  o TOB   ON UNIT 12

 BTN5 -- BASIC TRANSPORT PACKAGE, VERSION 5, FEBRUARY 2010, INPUT READ FROM UNIT  1
    7958237 ELEMENTS OF THE  X ARRAY USED BY THE BTN PACKAGE
     957268 ELEMENTS OF THE IX ARRAY USED BY THE BTN PACKAGE

 FMI5 -- FLOW MODEL INTERFACE PACKAGE, VERSION 5, FEBRUARY 2010, INPUT READ FROM UNIT 10
 FLOW MODEL IS STEADY-STATE
 FLOW MODEL CONTAINS CONSTANT-HEAD CELLS

 ADV5 -- ADVECTION PACKAGE, VERSION 5, FEBRUARY 2010, INPUT READ FROM UNIT  2
 ADVECTION IS SOLVED WITH THE ULTIMATE SCHEME
 COURANT NUMBER ALLOWED IN SOLVING THE ADVECTION TERM =  1.00    
          0 ELEMENTS OF THE  X ARRAY USED BY THE ADV PACKAGE
          0 ELEMENTS OF THE IX ARRAY USED BY THE ADV PACKAGE

 DSP5 -- DISPERSION PACKAGE, VERSION 5, FEBRUARY 2010, INPUT READ FROM UNIT  3
    5504276 ELEMENTS OF THE  X ARRAY USED BY THE DSP PACKAGE
          0 ELEMENTS OF THE IX ARRAY USED BY THE DSP PACKAGE

 SSM5 -- SINK & SOURCE MIXING PACKAGE, VERSION 5, FEBRUARY 2010, INPUT READ FROM UNIT  4
 HEADER LINE OF THE SSM PACKAGE INPUT FILE:
  F F T T F F                                                                                                                                                                                            
 MAJOR STRESS COMPONENTS PRESENT IN THE FLOW MODEL:
  o RECHARGE [RCH]
  o EVAPOTRANSPIRATION [EVT]
 MAXIMUM NUMBER OF POINT SINKS/SOURCES =   14928
     837138 ELEMENTS OF THE  X ARRAY USED BY THE SSM PACKAGE
     119658 ELEMENTS OF THE IX ARRAY BY THE SSM PACKAGE

 GCG5 -- GENERALIZED CONJUGATE GRADIENT SOLVER PACKAGE, VERSION 5, FEBRUARY 2010 INPUT READ FROM UNIT  9
 MAXIMUM OF    1 OUTER ITERATIONS
        AND   50 INNER ITERATIONS ALLOWED FOR CLOSURE
 THE PRECONDITIONING TYPE SELECTED IS JACOBI.
 DISPERSION CROSS TERMS LUMPED INTO RIGHT-HAND-SIDE
    3589790 ELEMENTS OF THE  X ARRAY USED BY THE GCG PACKAGE
        150 ELEMENTS OF THE IX ARRAY USED BY THE GCG PACKAGE

 TOB5 -- TRANSPORT OBSERVATION PACKAGE, VERSION 5, FEBRUARY 2010, INPUT READ FROM UNIT 12
# TOBS package input file (GMS - 6.0)                                                                                                                                                                   
 MAXIMUM NUMBER OF CONC OBSERVATION WELLS =      0
 MAXIMUM NUMBER OF MASS-FLUX OBSERVATIONS =      0
 MAXIMUM NUMBER OF CELLS IN A FLUX OBJECT =      0
         28 ELEMENTS OF THE  X ARRAY USED BY THE TOB PACKAGE
          4 ELEMENTS OF THE IX ARRAY USED BY THE TOB PACKAGE

 ..........................................
 ELEMENTS OF THE  X ARRAY USED =  17889470
 ELEMENTS OF THE IX ARRAY USED =   1077081
 ..........................................

 LAYER NUMBER  AQUIFER TYPE
 ------------  ------------
       1            1
       2            0
       3            0
       4            0

                           WIDTH ALONG ROWS (DELR)  READ ON UNIT  1 USING FORMAT: "           (10G15.6)"
                           -----------------------------------------------------------------------------

            1           2           3           4           5           6           7           8           9          10
           11          12          13          14          15          16          17          18          19          20
           21          22          23          24          25          26          27          28          29          30
           31          32          33          34          35          36          37          38          39          40
           41          42          43          44          45          46          47          48          49          50
           51          52          53          54          55          56          57          58          59          60
           61          62          63          64          65          66          67          68          69          70
           71          72          73          74          75          76          77          78          79          80
           81          82          83          84          85          86          87          88          89          90
           91          92          93          94          95          96          97          98          99         100
          101         102         103         104         105         106         107         108         109         110
          111         112         113         114         115         116         117         118         119         120
          121         122         123         124         125         126         127         128         129         130
          131         132         133         134         135         136         137         138         139         140
          141         142         143         144         145         146         147         148         149         150
          151         152         153         154         155         156         157         158         159         160
          161         162         163         164         165         166         167         168         169         170
          171         172         173         174         175         176         177         178         179         180
          181         182         183         184         185         186         187         188         189         190
          191         192         193         194         195         196         197         198         199         200
          201         202         203         204         205         206         207         208         209         210
          211         212         213         214         215         216         217         218         219         220
          221         222         223         224         225         226         227         228         229         230
          231         232         233         234         235         236         237         238         239         240
          241         242         243         244         245         246         247         248         249         250
          251         252         253         254         255         256         257         258         259
 .............................................................................................................................
   1    99.55       99.55       99.55       99.55       99.55       99.55       99.55       99.55       99.55       99.55    
        99.55       99.55       99.55       99.55       99.55       99.55       99.55       99.55       99.55       99.55    
        99.55       99.55       99.55       99.55       99.55       99.55       99.55       99.55       99.55       99.55    
        99.55       99.55       99.55       99.55       99.55       99.55       99.55       99.55       99.55       99.55    
        99.55       99.55       99.55       99.55       99.55       99.55       99.55       99.55       99.55       99.55    
        99.55       99.55       99.55       99.55       95.97       87.25       79.32       72.10       65.55       59.59    
        54.17       49.25       44.77       40.70       37.00       33.64       30.58       27.80       25.27       22.97    
        20.89       18.99       17.26       15.69       14.27       12.97       11.79       10.72       9.744       8.858    
        8.053       7.320       6.655       6.050       5.500       5.000       5.500       6.050       6.655       7.320    
        8.053       8.722       8.722       8.053       7.320       6.655       6.050       5.500       5.000       5.500    
        6.050       6.520       6.520       6.520       6.520       6.520       6.520       6.520       6.520       6.520    
        6.520       6.050       5.500       5.000       5.615       5.615       5.615       5.615       5.000       5.500    
        6.050       6.655       7.320       8.053       8.858       9.744       10.72       11.79       12.97       14.27    
        15.69       17.26       18.99       20.89       22.97       25.27       27.80       30.58       33.64       37.00    
        40.70       44.77       49.25       54.17       59.59       65.55       72.10       79.32       87.25       88.59    
        88.59       87.25       79.32       72.10       65.55       59.59       54.17       49.25       44.77       40.70    
        37.00       33.64       30.58       27.80       25.27       22.97       20.89       18.99       17.26       15.69    
        14.27       12.97       11.79       10.72       9.744       8.858       8.053       7.320       6.655       6.050    
        5.500       5.000       5.500       6.050       6.655       7.320       8.053       8.858       9.744       10.72    
        11.79       12.97       14.27       15.69       17.26       18.99       20.89       22.97       25.27       27.80    
        30.58       33.64       37.00       40.70       44.77       49.25       54.17       59.59       65.55       72.10    
        79.32       87.25       95.97       98.31       98.31       98.31       98.31       98.31       98.31       98.31    
        98.31       98.31       98.31       98.31       98.31       98.31       98.31       98.31       98.31       98.31    
        98.31       98.31       98.31       98.31       98.31       98.31       98.31       98.31       98.31       98.31    
        98.31       98.31       98.31       98.31       98.31       98.31       98.31       98.31       98.31       98.31    
        98.31       98.31       98.31       98.31       98.31       98.31       98.31       98.31       98.31    

                           WIDTH ALONG COLS (DELC)  READ ON UNIT  1 USING FORMAT: "           (10G15.6)"
                           -----------------------------------------------------------------------------

            1           2           3           4           5           6           7           8           9          10
           11          12          13          14          15          16          17          18          19          20
           21          22          23          24          25          26          27          28          29          30
           31          32          33          34          35          36          37          38          39          40
           41          42          43          44          45          46          47          48          49          50
           51          52          53          54          55          56          57          58          59          60
           61          62          63          64          65          66          67          68          69          70
           71          72          73          74          75          76          77          78          79          80
           81          82          83          84          85          86          87          88          89          90
           91          92          93          94          95          96          97          98          99         100
          101         102         103         104         105         106         107         108         109         110
          111         112         113         114         115         116         117         118         119         120
          121         122         123         124         125         126         127         128         129         130
          131         132         133         134         135         136         137         138         139         140
          141         142         143         144         145         146         147         148         149         150
          151         152         153         154         155         156         157         158         159         160
          161         162         163         164         165         166         167         168         169         170
          171         172         173         174         175         176         177         178         179         180
          181         182         183         184         185         186         187         188         189         190
          191         192         193         194         195         196         197         198         199         200
          201         202         203         204         205         206         207         208         209         210
          211         212         213         214         215         216         217         218         219         220
          221         222         223         224         225         226         227         228         229         230
          231
 .............................................................................................................................
   1    90.38       90.38       90.38       90.38       90.38       90.38       90.38       90.38       90.38       87.25    
        79.32       72.10       65.55       59.59       54.17       49.25       44.77       40.70       37.00       33.64    
        30.58       27.80       25.27       22.97       20.89       18.99       17.26       15.69       14.27       12.97    
        11.79       10.72       9.744       8.858       8.053       7.320       6.655       6.050       5.500       5.000    
        5.500       6.050       6.655       7.320       8.053       8.858       9.744       10.42       10.42       10.42    
        10.42       10.42       10.42       10.42       10.42       10.42       10.42       9.744       8.858       8.053    
        7.320       6.655       6.050       5.500       5.000       5.500       5.500       5.500       5.500       5.000    
        5.500       6.050       6.655       7.320       8.053       8.858       9.744       10.72       11.79       12.97    
        14.27       15.69       16.07       16.07       15.69       14.27       12.97       11.79       10.72       9.744    
        8.858       8.053       7.320       6.655       6.050       5.500       5.000       5.500       6.050       6.655    
        7.320       8.053       8.858       9.744       10.72       11.79       12.97       14.27       15.69       17.26    
        18.99       20.89       22.88       22.88       20.89       18.99       17.26       15.69       14.27       12.97    
        11.79       10.72       9.744       8.858       8.053       7.320       6.655       6.050       5.500       5.000    
        5.500       6.050       6.655       7.320       8.053       8.858       9.744       10.72       11.79       12.97    
        14.27       15.69       17.26       18.99       20.89       22.97       25.27       27.80       30.58       33.64    
        37.00       40.70       44.77       49.25       54.17       59.59       65.55       72.10       79.32       87.25    
        95.97       99.64       99.64       99.64       99.64       99.64       99.64       99.64       99.64       99.64    
        99.64       99.64       99.64       99.64       99.64       99.64       99.64       99.64       99.64       99.64    
        99.64       99.64       99.64       99.64       99.64       99.64       99.64       99.64       99.64       99.64    
        99.64       99.64       99.64       99.64       99.64       99.64       99.64       99.64       99.64       99.64    
        99.64       99.64       99.64       99.64       99.64       99.64       99.64       99.64       99.64       99.64    
        99.64       99.64       99.64       99.64       99.64       99.64       99.64       99.64       99.64       99.64    
        99.64       99.64       99.64       99.64       99.64       99.64       99.64       99.64       99.64       99.64    
        99.64    

                           TOP ELEV. OF 1ST LAYER   READ ON UNIT  1 USING FORMAT: "           (10G15.6)"
                           -----------------------------------------------------------------------------

                     CELL THICKNESS (DZ)      FOR LAYER  1 READ ON UNIT  1 USING FORMAT: "           (10G15.6)"
                     ------------------------------------------------------------------------------------------

                     CELL THICKNESS (DZ)      FOR LAYER  2 READ ON UNIT  1 USING FORMAT: "           (10G15.6)"
                     ------------------------------------------------------------------------------------------

                     CELL THICKNESS (DZ)      FOR LAYER  3 READ ON UNIT  1 USING FORMAT: "           (10G15.6)"
                     ------------------------------------------------------------------------------------------

                     CELL THICKNESS (DZ)      FOR LAYER  4 READ ON UNIT  1 USING FORMAT: "           (10G15.6)"
                     ------------------------------------------------------------------------------------------
                                       POROSITY                 =  0.3000000     FOR LAYER  1
                                       POROSITY                 =  0.3000000     FOR LAYER  2
                                       POROSITY                 =  0.3000000     FOR LAYER  3
                                       POROSITY                 =  0.3000000     FOR LAYER  4

                     CONCN. BOUNDARY ARRAY    FOR LAYER  1 READ ON UNIT  1 USING FORMAT: "              (30I3)"
                     ------------------------------------------------------------------------------------------

                     CONCN. BOUNDARY ARRAY    FOR LAYER  2 READ ON UNIT  1 USING FORMAT: "              (30I3)"
                     ------------------------------------------------------------------------------------------

                     CONCN. BOUNDARY ARRAY    FOR LAYER  3 READ ON UNIT  1 USING FORMAT: "              (30I3)"
                     ------------------------------------------------------------------------------------------

                     CONCN. BOUNDARY ARRAY    FOR LAYER  4 READ ON UNIT  1 USING FORMAT: "              (30I3)"
                     ------------------------------------------------------------------------------------------
                                       INITIAL CONC.: COMP.  01 =   0.000000     FOR LAYER  1
                                       INITIAL CONC.: COMP.  01 =   0.000000     FOR LAYER  2
                                       INITIAL CONC.: COMP.  01 =   0.000000     FOR LAYER  3
                                       INITIAL CONC.: COMP.  01 =   0.000000     FOR LAYER  4
                                       INITIAL CONC.: COMP.  02 =   0.000000     FOR LAYER  1
                                       INITIAL CONC.: COMP.  02 =   0.000000     FOR LAYER  2
                                       INITIAL CONC.: COMP.  02 =   0.000000     FOR LAYER  3
                                       INITIAL CONC.: COMP.  02 =   0.000000     FOR LAYER  4
                                       INITIAL CONC.: COMP.  03 =   0.000000     FOR LAYER  1
                                       INITIAL CONC.: COMP.  03 =   0.000000     FOR LAYER  2
                                       INITIAL CONC.: COMP.  03 =   0.000000     FOR LAYER  3
                                       INITIAL CONC.: COMP.  03 =   0.000000     FOR LAYER  4
                                       INITIAL CONC.: COMP.  04 =   0.000000     FOR LAYER  1
                                       INITIAL CONC.: COMP.  04 =   0.000000     FOR LAYER  2
                                       INITIAL CONC.: COMP.  04 =   0.000000     FOR LAYER  3
                                       INITIAL CONC.: COMP.  04 =   0.000000     FOR LAYER  4

 VALUE INDICATING INACTIVE CONCENTRATION CELLS =   -999.0000    
 MINIMUM SATURATED THICKNESS [THKMIN] ALLOWED =  0.0000 OF TOTAL CELL THICKNESS


 OUTPUT CONTROL OPTIONS
 ----------------------

 DO NOT PRINT CELL CONCENTRATION
 DO NOT PRINT PARTICLE NUMBER IN EACH CELL
 DO NOT PRINT RETARDATION FACTOR
 DO NOT PRINT DISPERSION COEFFICIENT
 SAVE DISSOLVED PHASE CONCENTRATIONS IN UNFORMATTED FILES [MT3Dnnn.UCN]
  FOR EACH SPECIES ON UNITS 201 AND ABOVE

 SIMULATION RESULTS ARE SAVED EVERY   1 TRANSPORT STEP(S)

 NUMBER OF OBSERVATION POINTS =    0

 SAVE ONE-LINE SUMMARY OF MASS BUDGETS IN FILES [MT3Dnnn.MAS]
  FOR EACH SPECIES ON UNITS 601 AND ABOVE, EVERY  1 TRANSPORT STEPS

 MAXIMUM LENGTH ALONG THE X (J) AXIS =   14106.38    
 MAXIMUM LENGTH ALONG THE Y (I) AXIS =   10611.69    
 MAXIMUM LENGTH ALONG THE Z (K) AXIS =   80.35999    


 ADVECTION SOLUTION OPTIONS
 --------------------------

 ADVECTION IS SOLVED WITH THE ULTIMATE SCHEME
 COURANT NUMBER ALLOWED IN SOLVING THE ADVECTION TERM =  1.00    


 DISPERSION INPUT PARAMETERS
 ---------------------------


                     LONG. DISPERSIVITY (AL)  FOR LAYER  1 READ ON UNIT  3 USING FORMAT: "           (10G15.6)"
                     ------------------------------------------------------------------------------------------

                     LONG. DISPERSIVITY (AL)  FOR LAYER  2 READ ON UNIT  3 USING FORMAT: "           (10G15.6)"
                     ------------------------------------------------------------------------------------------

                     LONG. DISPERSIVITY (AL)  FOR LAYER  3 READ ON UNIT  3 USING FORMAT: "           (10G15.6)"
                     ------------------------------------------------------------------------------------------

                     LONG. DISPERSIVITY (AL)  FOR LAYER  4 READ ON UNIT  3 USING FORMAT: "           (10G15.6)"
                     ------------------------------------------------------------------------------------------
                                       H. TRANS./LONG. DISP.    =  0.1000000    
                                       V. TRANS./LONG. DISP.    =  0.1000000E-01
                                       DIFFUSION COEFFICIENT    =   0.000000    



                                               SOLUTION BY THE GENERALIZED CONJUGATE GRADIENT METHOD
                                               -----------------------------------------------------
                                     MAXIMUM OUTER ITERATIONS ALLOWED FOR CLOSURE =        1
                                     MAXIMUM INNER ITERATIONS ALLOWED FOR CLOSURE =       50
                                                    PRECONDITIONING TYPE SELECTED =    1
                                                           ACCELERATION PARAMETER =     1.0000    
                                       CONCENTRATION CHANGE CRITERION FOR CLOSURE =    0.10000E-03
                                       GCG CONCENTRATION CHANGE PRINTOUT INTERVAL =      999


 TRANSPORT OBSERVATION INPUT DATA
 --------------------------------

 NUMBER OF CONCENTRATION OBSERVATION WELLS:     0
    MULTIPLIER FOR OBSERVED CONCENTRATIONS:    1.000    
    OPTION FOR CALCULATING RESIDUAL ERRORS:     1
         OPTION FOR LOGARITHMIC CONVERSION:     0
 OPTION FOR INTERPOLATING CALCULATED CONC.:     0

 OBS_NAME     LAYER  ROW  COL. SPECIES  OBS_TIME   ROW_OFFSET  COL_OFFSET    WEIGHT      OBS_CONC
 ...................................................................................................


                                   ++++++++++++++++++++++++++++++++++++++++++++++++++++++++++++++
                                                       STRESS PERIOD NO.  001
                                   ++++++++++++++++++++++++++++++++++++++++++++++++++++++++++++++


 LENGTH OF CURRENT STRESS PERIOD =   100.0000    
 NUMBER OF TIME STEPS FOR CURRENT STRESS PERIOD =   10
 TIME STEP MULTIPLIER USED IN FLOW SOLUTION =   1.000000    

 ***Type of Transport Simulation is TRANSIENT

 USER-SPECIFIED TRANSPORT STEPSIZE =   0.000000       d
 MAXIMUM NUMBER OF TRANSPORT STEPS ALLOWED  IN ONE FLOW TIME STEP =      1000
 MULTIPLIER FOR SUCCESSIVE TRANSPORT STEPS  [USED IN IMPLICIT SCHEMES] =     1.000
 MAXIMUM TRANSPORT STEP SIZE  [USED IN IMPLICIT SCHEMES] =   0.000000       d

 CONCENTRATION OF RECHARGE FLUXES WILL BE READ IN STRESS PERIOD  1

                           RECH. CONC. COMP.  01    READ ON UNIT  4 USING FORMAT: "           (10G15.6)"
                           -----------------------------------------------------------------------------

                           RECH. CONC. COMP.  02    READ ON UNIT  4 USING FORMAT: "           (10G15.6)"
                           -----------------------------------------------------------------------------

                           RECH. CONC. COMP.  03    READ ON UNIT  4 USING FORMAT: "           (10G15.6)"
                           -----------------------------------------------------------------------------

                           RECH. CONC. COMP.  04    READ ON UNIT  4 USING FORMAT: "           (10G15.6)"
                           -----------------------------------------------------------------------------

 CONCENTRATION OF E. T. FLUXES WILL BE READ IN STRESS PERIOD  1
                                       E. T. CONC. COMP.  01    =   0.000000    
                                       E. T. CONC. COMP.  02    =   0.000000    
                                       E. T. CONC. COMP.  03    =   0.000000    
                                       E. T. CONC. COMP.  04    =   0.000000    

 NO. OF POINT SINKS/SOURCES OF SPECIFIED CONCONCENTRATIONS =    0 IN STRESS PERIOD  1


                                          ================================================
                                                         TIME STEP NO.  001
                                          ================================================

 FROM TIME =   0.0000     TO    10.000    


                    "THKSAT          " FLOW TERMS FOR TIME STEP  1, STRESS PERIOD  1 READ UNFORMATTED ON UNIT 10
                    --------------------------------------------------------------------------------------------

                    "QXX             " FLOW TERMS FOR TIME STEP  1, STRESS PERIOD  1 READ UNFORMATTED ON UNIT 10
                    --------------------------------------------------------------------------------------------

                    "QYY             " FLOW TERMS FOR TIME STEP  1, STRESS PERIOD  1 READ UNFORMATTED ON UNIT 10
                    --------------------------------------------------------------------------------------------

                    "QZZ             " FLOW TERMS FOR TIME STEP  1, STRESS PERIOD  1 READ UNFORMATTED ON UNIT 10
                    --------------------------------------------------------------------------------------------

 MAXIMUM STEPSIZE DURING WHICH ANY PARTICLE CANNOT MOVE MORE THAN ONE CELL
 =  946.4    (WHEN MIN. R.F.=1)  AT K=   1, I= 129, J= 185

 MAXIMUM STEPSIZE WHICH MEETS STABILITY CRITERION OF THE ADVECTION TERM
 (FOR PURE FINITE-DIFFERENCE OPTION, MIXELM=0) 
 =  561.1    (WHEN MIN. R.F.=1)  AT K=   1, I= 130, J= 186

                    "CNH             " FLOW TERMS FOR TIME STEP  1, STRESS PERIOD  1 READ UNFORMATTED ON UNIT 10
                    --------------------------------------------------------------------------------------------

                    "RCH             " FLOW TERMS FOR TIME STEP  1, STRESS PERIOD  1 READ UNFORMATTED ON UNIT 10
                    --------------------------------------------------------------------------------------------

                    "EVT             " FLOW TERMS FOR TIME STEP  1, STRESS PERIOD  1 READ UNFORMATTED ON UNIT 10
                    --------------------------------------------------------------------------------------------


 TOTAL NUMBER OF POINT SOURCES/SINKS PRESENT IN THE FLOW MODEL =  3732

 MAXIMUM STEPSIZE WHICH MEETS STABILITY CRITERION OF THE SINK & SOURCE TERM
 =  1186.    (WHEN MIN. R.F.=1)  AT K=   1, I= 127, J= 180

 MAXIMUM STEPSIZE WHICH MEETS STABILITY CRITERION OF THE DISPERSION TERM
 =  41.50    (WHEN MIN. R.F.=1)  AT K=   1, I= 129, J= 185


     1 CALLS TO GCG PACKAGE FOR TRANSPORT TIME STEP   1 IN FLOW TIME STEP   1 STRESS PERIOD   1
     6 TOTAL ITERATIONS
  MAXIMUM CONCENTRATION CHANGES FOR EACH ITERATION:
  MAX. CHANGE LAYER,ROW,COL MAX. CHANGE LAYER,ROW,COL MAX. CHANGE LAYER,ROW,COL MAX. CHANGE LAYER,ROW,COL MAX. CHANGE LAYER,ROW,COL
 ------------------------------------------------------------------------------------------------------------------------------------
    18.80     (  1,133,185)   1.681     (  1,129,185)  0.1738     (  1,129,184)  0.1174E-01 (  1,129,185)  0.6599E-03 (  1,127,179)
   0.5174E-04 (  1,127,181)


     1 CALLS TO GCG PACKAGE FOR TRANSPORT TIME STEP   1 IN FLOW TIME STEP   1 STRESS PERIOD   1
     5 TOTAL ITERATIONS
  MAXIMUM CONCENTRATION CHANGES FOR EACH ITERATION:
  MAX. CHANGE LAYER,ROW,COL MAX. CHANGE LAYER,ROW,COL MAX. CHANGE LAYER,ROW,COL MAX. CHANGE LAYER,ROW,COL MAX. CHANGE LAYER,ROW,COL
 ------------------------------------------------------------------------------------------------------------------------------------
    1.797     (  1,133,185)  0.1607     (  1,129,185)  0.1662E-01 (  1,129,184)  0.1116E-02 (  1,129,185)  0.6330E-04 (  1,127,179)


     1 CALLS TO GCG PACKAGE FOR TRANSPORT TIME STEP   1 IN FLOW TIME STEP   1 STRESS PERIOD   1
     3 TOTAL ITERATIONS
  MAXIMUM CONCENTRATION CHANGES FOR EACH ITERATION:
  MAX. CHANGE LAYER,ROW,COL MAX. CHANGE LAYER,ROW,COL MAX. CHANGE LAYER,ROW,COL MAX. CHANGE LAYER,ROW,COL MAX. CHANGE LAYER,ROW,COL
 ------------------------------------------------------------------------------------------------------------------------------------
   0.4412E-02 (  1, 29, 95)  0.3711E-03 (  1, 40,113)  0.3395E-04 (  1, 41,114)


     1 CALLS TO GCG PACKAGE FOR TRANSPORT TIME STEP   1 IN FLOW TIME STEP   1 STRESS PERIOD   1
     4 TOTAL ITERATIONS
  MAXIMUM CONCENTRATION CHANGES FOR EACH ITERATION:
  MAX. CHANGE LAYER,ROW,COL MAX. CHANGE LAYER,ROW,COL MAX. CHANGE LAYER,ROW,COL MAX. CHANGE LAYER,ROW,COL MAX. CHANGE LAYER,ROW,COL
 ------------------------------------------------------------------------------------------------------------------------------------
   0.5180E-01 (  1,133,185)  0.4633E-02 (  1,129,185)  0.4729E-03 (  1,129,184)  0.3139E-04 (  1,129,185)



 >>>>>>>>>>>>>>>>>>>>>>>>>>>>>>>>>>>>>>>>>>>>>>>>>>>>>>>FOR COMPONENT NO. 01<<<<<<<<<<<<<<<<<<<<<<<<<<<<<<<<<<<<<<<<<<<<<<<<<<<<<<<


                                            -------------------------------------------
                                                      TRANSPORT STEP NO.    1
                                            -------------------------------------------

 TOTAL ELAPSED TIME SINCE BEGINNING OF SIMULATION =   10.00000       d
 .....................................................................

                     CUMMULATIVE MASS BUDGETS AT END OF TRANSPORT STEP    1, TIME STEP    1, STRESS PERIOD    1
                     ------------------------------------------------------------------------------------------

                                                             IN                           OUT
                                                      ----------------             ----------------
                               CONSTANT CONCENTRATION:    0.000000                    0.000000    
                                        CONSTANT HEAD:    0.000000                    0.000000    
                                             RECHARGE:    119435.7                    0.000000    
                                   EVAPOTRANSPIRATION:    0.000000                    0.000000    
                                MASS STORAGE (SOLUTE):    0.000000                   -119434.3    
                            ---------------------------------------------------------------------------
                                              [TOTAL]:    119435.7       mg          -119434.3       mg

                                                          NET (IN - OUT):    1.468750    
                                                   DISCREPANCY (PERCENT):   0.1229748E-02



 >>>>>>>>>>>>>>>>>>>>>>>>>>>>>>>>>>>>>>>>>>>>>>>>>>>>>>>FOR COMPONENT NO. 02<<<<<<<<<<<<<<<<<<<<<<<<<<<<<<<<<<<<<<<<<<<<<<<<<<<<<<<


                                            -------------------------------------------
                                                      TRANSPORT STEP NO.    1
                                            -------------------------------------------

 TOTAL ELAPSED TIME SINCE BEGINNING OF SIMULATION =   10.00000       d
 .....................................................................

                     CUMMULATIVE MASS BUDGETS AT END OF TRANSPORT STEP    1, TIME STEP    1, STRESS PERIOD    1
                     ------------------------------------------------------------------------------------------

                                                             IN                           OUT
                                                      ----------------             ----------------
                               CONSTANT CONCENTRATION:    0.000000                    0.000000    
                                        CONSTANT HEAD:    0.000000                    0.000000    
                                             RECHARGE:    11640.29                    0.000000    
                                   EVAPOTRANSPIRATION:    0.000000                    0.000000    
                                MASS STORAGE (SOLUTE):    0.000000                   -11640.10    
                            ---------------------------------------------------------------------------
                                              [TOTAL]:    11640.29       mg          -11640.10       mg

                                                          NET (IN - OUT):   0.1933594    
                                                   DISCREPANCY (PERCENT):   0.1661135E-02



 >>>>>>>>>>>>>>>>>>>>>>>>>>>>>>>>>>>>>>>>>>>>>>>>>>>>>>>FOR COMPONENT NO. 03<<<<<<<<<<<<<<<<<<<<<<<<<<<<<<<<<<<<<<<<<<<<<<<<<<<<<<<


                                            -------------------------------------------
                                                      TRANSPORT STEP NO.    1
                                            -------------------------------------------

 TOTAL ELAPSED TIME SINCE BEGINNING OF SIMULATION =   10.00000       d
 .....................................................................

                     CUMMULATIVE MASS BUDGETS AT END OF TRANSPORT STEP    1, TIME STEP    1, STRESS PERIOD    1
                     ------------------------------------------------------------------------------------------

                                                             IN                           OUT
                                                      ----------------             ----------------
                               CONSTANT CONCENTRATION:    0.000000                    0.000000    
                                        CONSTANT HEAD:    0.000000                    0.000000    
                                             RECHARGE:    426.2060                    0.000000    
                                   EVAPOTRANSPIRATION:    0.000000                    0.000000    
                                MASS STORAGE (SOLUTE):    0.000000                   -426.2009    
                            ---------------------------------------------------------------------------
                                              [TOTAL]:    426.2060       mg          -426.2009       mg

                                                          NET (IN - OUT):   0.5096436E-02
                                                   DISCREPANCY (PERCENT):   0.1195775E-02



 >>>>>>>>>>>>>>>>>>>>>>>>>>>>>>>>>>>>>>>>>>>>>>>>>>>>>>>FOR COMPONENT NO. 04<<<<<<<<<<<<<<<<<<<<<<<<<<<<<<<<<<<<<<<<<<<<<<<<<<<<<<<


                                            -------------------------------------------
                                                      TRANSPORT STEP NO.    1
                                            -------------------------------------------

 TOTAL ELAPSED TIME SINCE BEGINNING OF SIMULATION =   10.00000       d
 .....................................................................

                     CUMMULATIVE MASS BUDGETS AT END OF TRANSPORT STEP    1, TIME STEP    1, STRESS PERIOD    1
                     ------------------------------------------------------------------------------------------

                                                             IN                           OUT
                                                      ----------------             ----------------
                               CONSTANT CONCENTRATION:    0.000000                    0.000000    
                                        CONSTANT HEAD:    0.000000                    0.000000    
                                             RECHARGE:    77.86137                    0.000000    
                                   EVAPOTRANSPIRATION:    0.000000                    0.000000    
                                MASS STORAGE (SOLUTE):    0.000000                   -77.85870    
                            ---------------------------------------------------------------------------
                                              [TOTAL]:    77.86137       mg          -77.85870       mg

                                                          NET (IN - OUT):   0.2662659E-02
                                                   DISCREPANCY (PERCENT):   0.3419802E-02


                                          ================================================
                                                         TIME STEP NO.  002
                                          ================================================

 FROM TIME =   10.000     TO    20.000    



     1 CALLS TO GCG PACKAGE FOR TRANSPORT TIME STEP   1 IN FLOW TIME STEP   2 STRESS PERIOD   1
     5 TOTAL ITERATIONS
  MAXIMUM CONCENTRATION CHANGES FOR EACH ITERATION:
  MAX. CHANGE LAYER,ROW,COL MAX. CHANGE LAYER,ROW,COL MAX. CHANGE LAYER,ROW,COL MAX. CHANGE LAYER,ROW,COL MAX. CHANGE LAYER,ROW,COL
 ------------------------------------------------------------------------------------------------------------------------------------
    1.028     (  1,133,185)  0.8190E-01 (  1,129,185)  0.8160E-02 (  1,129,184)  0.5938E-03 (  1,129,185)  0.3135E-04 (  1,127,179)


     1 CALLS TO GCG PACKAGE FOR TRANSPORT TIME STEP   1 IN FLOW TIME STEP   2 STRESS PERIOD   1
     5 TOTAL ITERATIONS
  MAXIMUM CONCENTRATION CHANGES FOR EACH ITERATION:
  MAX. CHANGE LAYER,ROW,COL MAX. CHANGE LAYER,ROW,COL MAX. CHANGE LAYER,ROW,COL MAX. CHANGE LAYER,ROW,COL MAX. CHANGE LAYER,ROW,COL
 ------------------------------------------------------------------------------------------------------------------------------------
    1.028     (  1,133,185)  0.8193E-01 (  1,129,185)  0.8160E-02 (  1,129,184)  0.5907E-03 (  1,129,185)  0.3147E-04 (  1,127,179)


     1 CALLS TO GCG PACKAGE FOR TRANSPORT TIME STEP   1 IN FLOW TIME STEP   2 STRESS PERIOD   1
     5 TOTAL ITERATIONS
  MAXIMUM CONCENTRATION CHANGES FOR EACH ITERATION:
  MAX. CHANGE LAYER,ROW,COL MAX. CHANGE LAYER,ROW,COL MAX. CHANGE LAYER,ROW,COL MAX. CHANGE LAYER,ROW,COL MAX. CHANGE LAYER,ROW,COL
 ------------------------------------------------------------------------------------------------------------------------------------
    1.036     (  1, 30, 95)  0.8737E-01 (  1, 40,113)  0.7153E-02 (  1, 41,114)  0.5281E-03 (  1, 40,115)  0.4327E-04 (  1, 40, 89)


     1 CALLS TO GCG PACKAGE FOR TRANSPORT TIME STEP   1 IN FLOW TIME STEP   2 STRESS PERIOD   1
     5 TOTAL ITERATIONS
  MAXIMUM CONCENTRATION CHANGES FOR EACH ITERATION:
  MAX. CHANGE LAYER,ROW,COL MAX. CHANGE LAYER,ROW,COL MAX. CHANGE LAYER,ROW,COL MAX. CHANGE LAYER,ROW,COL MAX. CHANGE LAYER,ROW,COL
 ------------------------------------------------------------------------------------------------------------------------------------
    1.027     (  1,133,185)  0.8195E-01 (  1,129,185)  0.8043E-02 (  1,129,184)  0.5753E-03 (  1,129,185)  0.3254E-04 (  1,127,179)



 >>>>>>>>>>>>>>>>>>>>>>>>>>>>>>>>>>>>>>>>>>>>>>>>>>>>>>>FOR COMPONENT NO. 01<<<<<<<<<<<<<<<<<<<<<<<<<<<<<<<<<<<<<<<<<<<<<<<<<<<<<<<


                                            -------------------------------------------
                                                      TRANSPORT STEP NO.    1
                                            -------------------------------------------

 TOTAL ELAPSED TIME SINCE BEGINNING OF SIMULATION =   20.00000       d
 .....................................................................

                     CUMMULATIVE MASS BUDGETS AT END OF TRANSPORT STEP    1, TIME STEP    2, STRESS PERIOD    1
                     ------------------------------------------------------------------------------------------

                                                             IN                           OUT
                                                      ----------------             ----------------
                               CONSTANT CONCENTRATION:    0.000000                    0.000000    
                                        CONSTANT HEAD:    0.000000                    0.000000    
                                             RECHARGE:    238871.5                    0.000000    
                                   EVAPOTRANSPIRATION:    0.000000                   0.2089914E-01
                                MASS STORAGE (SOLUTE):    48.41500                   -238918.4    
                            ---------------------------------------------------------------------------
                                              [TOTAL]:    238919.9       mg          -238918.4       mg

                                                          NET (IN - OUT):    1.531250    
                                                   DISCREPANCY (PERCENT):   0.6409072E-03



 >>>>>>>>>>>>>>>>>>>>>>>>>>>>>>>>>>>>>>>>>>>>>>>>>>>>>>>FOR COMPONENT NO. 02<<<<<<<<<<<<<<<<<<<<<<<<<<<<<<<<<<<<<<<<<<<<<<<<<<<<<<<


                                            -------------------------------------------
                                                      TRANSPORT STEP NO.    1
                                            -------------------------------------------

 TOTAL ELAPSED TIME SINCE BEGINNING OF SIMULATION =   20.00000       d
 .....................................................................

                     CUMMULATIVE MASS BUDGETS AT END OF TRANSPORT STEP    1, TIME STEP    2, STRESS PERIOD    1
                     ------------------------------------------------------------------------------------------

                                                             IN                           OUT
                                                      ----------------             ----------------
                               CONSTANT CONCENTRATION:    0.000000                    0.000000    
                                        CONSTANT HEAD:    0.000000                    0.000000    
                                             RECHARGE:    23280.58                    0.000000    
                                   EVAPOTRANSPIRATION:    0.000000                   0.2034152E-02
                                MASS STORAGE (SOLUTE):    4.675702                   -23285.08    
                            ---------------------------------------------------------------------------
                                              [TOTAL]:    23285.26       mg          -23285.08       mg

                                                          NET (IN - OUT):   0.1796875    
                                                   DISCREPANCY (PERCENT):   0.7716821E-03



 >>>>>>>>>>>>>>>>>>>>>>>>>>>>>>>>>>>>>>>>>>>>>>>>>>>>>>>FOR COMPONENT NO. 03<<<<<<<<<<<<<<<<<<<<<<<<<<<<<<<<<<<<<<<<<<<<<<<<<<<<<<<


                                            -------------------------------------------
                                                      TRANSPORT STEP NO.    1
                                            -------------------------------------------

 TOTAL ELAPSED TIME SINCE BEGINNING OF SIMULATION =   20.00000       d
 .....................................................................

                     CUMMULATIVE MASS BUDGETS AT END OF TRANSPORT STEP    1, TIME STEP    2, STRESS PERIOD    1
                     ------------------------------------------------------------------------------------------

                                                             IN                           OUT
                                                      ----------------             ----------------
                               CONSTANT CONCENTRATION:    0.000000                    0.000000    
                                        CONSTANT HEAD:    0.000000                    0.000000    
                                             RECHARGE:    852.4119                    0.000000    
                                   EVAPOTRANSPIRATION:    0.000000                   0.4616262E-04
                                MASS STORAGE (SOLUTE):   0.7075386E-01               -852.4774    
                            ---------------------------------------------------------------------------
                                              [TOTAL]:    852.4827       mg          -852.4773       mg

                                                          NET (IN - OUT):   0.5371094E-02
                                                   DISCREPANCY (PERCENT):   0.6300551E-03



 >>>>>>>>>>>>>>>>>>>>>>>>>>>>>>>>>>>>>>>>>>>>>>>>>>>>>>>FOR COMPONENT NO. 04<<<<<<<<<<<<<<<<<<<<<<<<<<<<<<<<<<<<<<<<<<<<<<<<<<<<<<<


                                            -------------------------------------------
                                                      TRANSPORT STEP NO.    1
                                            -------------------------------------------

 TOTAL ELAPSED TIME SINCE BEGINNING OF SIMULATION =   20.00000       d
 .....................................................................

                     CUMMULATIVE MASS BUDGETS AT END OF TRANSPORT STEP    1, TIME STEP    2, STRESS PERIOD    1
                     ------------------------------------------------------------------------------------------

                                                             IN                           OUT
                                                      ----------------             ----------------
                               CONSTANT CONCENTRATION:    0.000000                    0.000000    
                                        CONSTANT HEAD:    0.000000                    0.000000    
                                             RECHARGE:    155.7227                    0.000000    
                                   EVAPOTRANSPIRATION:    0.000000                   0.3110265E-04
                                MASS STORAGE (SOLUTE):   0.9295493E-01               -155.8129    
                            ---------------------------------------------------------------------------
                                              [TOTAL]:    155.8157       mg          -155.8129       mg

                                                          NET (IN - OUT):   0.2792358E-02
                                                   DISCREPANCY (PERCENT):   0.1792107E-02


                                          ================================================
                                                         TIME STEP NO.  003
                                          ================================================

 FROM TIME =   20.000     TO    30.000    



     1 CALLS TO GCG PACKAGE FOR TRANSPORT TIME STEP   1 IN FLOW TIME STEP   3 STRESS PERIOD   1
     5 TOTAL ITERATIONS
  MAXIMUM CONCENTRATION CHANGES FOR EACH ITERATION:
  MAX. CHANGE LAYER,ROW,COL MAX. CHANGE LAYER,ROW,COL MAX. CHANGE LAYER,ROW,COL MAX. CHANGE LAYER,ROW,COL MAX. CHANGE LAYER,ROW,COL
 ------------------------------------------------------------------------------------------------------------------------------------
   0.5091     (  1,133,185)  0.3682E-01 (  1,129,185)  0.3423E-02 (  1,129,184)  0.2674E-03 (  1,129,185)  0.1323E-04 (  1,127,179)


     1 CALLS TO GCG PACKAGE FOR TRANSPORT TIME STEP   1 IN FLOW TIME STEP   3 STRESS PERIOD   1
     5 TOTAL ITERATIONS
  MAXIMUM CONCENTRATION CHANGES FOR EACH ITERATION:
  MAX. CHANGE LAYER,ROW,COL MAX. CHANGE LAYER,ROW,COL MAX. CHANGE LAYER,ROW,COL MAX. CHANGE LAYER,ROW,COL MAX. CHANGE LAYER,ROW,COL
 ------------------------------------------------------------------------------------------------------------------------------------
   0.5091     (  1,133,185)  0.3684E-01 (  1,129,185)  0.3421E-02 (  1,129,184)  0.2660E-03 (  1,129,185)  0.1335E-04 (  1,127,179)


     1 CALLS TO GCG PACKAGE FOR TRANSPORT TIME STEP   1 IN FLOW TIME STEP   3 STRESS PERIOD   1
     5 TOTAL ITERATIONS
  MAXIMUM CONCENTRATION CHANGES FOR EACH ITERATION:
  MAX. CHANGE LAYER,ROW,COL MAX. CHANGE LAYER,ROW,COL MAX. CHANGE LAYER,ROW,COL MAX. CHANGE LAYER,ROW,COL MAX. CHANGE LAYER,ROW,COL
 ------------------------------------------------------------------------------------------------------------------------------------
   0.5191     (  1, 30, 95)  0.4357E-01 (  1, 40,113)  0.3229E-02 (  1, 41,114)  0.2393E-03 (  1, 40,115)  0.1812E-04 (  1, 40, 89)


     1 CALLS TO GCG PACKAGE FOR TRANSPORT TIME STEP   1 IN FLOW TIME STEP   3 STRESS PERIOD   1
     5 TOTAL ITERATIONS
  MAXIMUM CONCENTRATION CHANGES FOR EACH ITERATION:
  MAX. CHANGE LAYER,ROW,COL MAX. CHANGE LAYER,ROW,COL MAX. CHANGE LAYER,ROW,COL MAX. CHANGE LAYER,ROW,COL MAX. CHANGE LAYER,ROW,COL
 ------------------------------------------------------------------------------------------------------------------------------------
   0.5088     (  1,133,185)  0.3687E-01 (  1,129,185)  0.3366E-02 (  1,129,184)  0.2589E-03 (  1,129,185)  0.1395E-04 (  1,127,179)



 >>>>>>>>>>>>>>>>>>>>>>>>>>>>>>>>>>>>>>>>>>>>>>>>>>>>>>>FOR COMPONENT NO. 01<<<<<<<<<<<<<<<<<<<<<<<<<<<<<<<<<<<<<<<<<<<<<<<<<<<<<<<


                                            -------------------------------------------
                                                      TRANSPORT STEP NO.    1
                                            -------------------------------------------

 TOTAL ELAPSED TIME SINCE BEGINNING OF SIMULATION =   30.00000       d
 .....................................................................

                     CUMMULATIVE MASS BUDGETS AT END OF TRANSPORT STEP    1, TIME STEP    3, STRESS PERIOD    1
                     ------------------------------------------------------------------------------------------

                                                             IN                           OUT
                                                      ----------------             ----------------
                               CONSTANT CONCENTRATION:    0.000000                    0.000000    
                                        CONSTANT HEAD:    0.000000                  -0.4761662E-32
                                             RECHARGE:    358307.2                    0.000000    
                                   EVAPOTRANSPIRATION:    0.000000                   0.9416960E-01
                                MASS STORAGE (SOLUTE):    142.6781                   -358448.4    
                            ---------------------------------------------------------------------------
                                              [TOTAL]:    358449.9       mg          -358448.3       mg

                                                          NET (IN - OUT):    1.562500    
                                                   DISCREPANCY (PERCENT):   0.4359056E-03



 >>>>>>>>>>>>>>>>>>>>>>>>>>>>>>>>>>>>>>>>>>>>>>>>>>>>>>>FOR COMPONENT NO. 02<<<<<<<<<<<<<<<<<<<<<<<<<<<<<<<<<<<<<<<<<<<<<<<<<<<<<<<


                                            -------------------------------------------
                                                      TRANSPORT STEP NO.    1
                                            -------------------------------------------

 TOTAL ELAPSED TIME SINCE BEGINNING OF SIMULATION =   30.00000       d
 .....................................................................

                     CUMMULATIVE MASS BUDGETS AT END OF TRANSPORT STEP    1, TIME STEP    3, STRESS PERIOD    1
                     ------------------------------------------------------------------------------------------

                                                             IN                           OUT
                                                      ----------------             ----------------
                               CONSTANT CONCENTRATION:    0.000000                    0.000000    
                                        CONSTANT HEAD:    0.000000                  -0.2657834E-33
                                             RECHARGE:    34920.88                    0.000000    
                                   EVAPOTRANSPIRATION:    0.000000                   0.9159079E-02
                                MASS STORAGE (SOLUTE):    13.78019                   -34934.44    
                            ---------------------------------------------------------------------------
                                              [TOTAL]:    34934.66       mg          -34934.43       mg

                                                          NET (IN - OUT):   0.2265625    
                                                   DISCREPANCY (PERCENT):   0.6485343E-03



 >>>>>>>>>>>>>>>>>>>>>>>>>>>>>>>>>>>>>>>>>>>>>>>>>>>>>>>FOR COMPONENT NO. 03<<<<<<<<<<<<<<<<<<<<<<<<<<<<<<<<<<<<<<<<<<<<<<<<<<<<<<<


                                            -------------------------------------------
                                                      TRANSPORT STEP NO.    1
                                            -------------------------------------------

 TOTAL ELAPSED TIME SINCE BEGINNING OF SIMULATION =   30.00000       d
 .....................................................................

                     CUMMULATIVE MASS BUDGETS AT END OF TRANSPORT STEP    1, TIME STEP    3, STRESS PERIOD    1
                     ------------------------------------------------------------------------------------------

                                                             IN                           OUT
                                                      ----------------             ----------------
                               CONSTANT CONCENTRATION:    0.000000                    0.000000    
                                        CONSTANT HEAD:    0.000000                    0.000000    
                                             RECHARGE:    1278.618                    0.000000    
                                   EVAPOTRANSPIRATION:    0.000000                   0.2131553E-03
                                MASS STORAGE (SOLUTE):   0.2126427                   -1278.825    
                            ---------------------------------------------------------------------------
                                              [TOTAL]:    1278.831       mg          -1278.824       mg

                                                          NET (IN - OUT):   0.6103516E-02
                                                   DISCREPANCY (PERCENT):   0.4772744E-03



 >>>>>>>>>>>>>>>>>>>>>>>>>>>>>>>>>>>>>>>>>>>>>>>>>>>>>>>FOR COMPONENT NO. 04<<<<<<<<<<<<<<<<<<<<<<<<<<<<<<<<<<<<<<<<<<<<<<<<<<<<<<<


                                            -------------------------------------------
                                                      TRANSPORT STEP NO.    1
                                            -------------------------------------------

 TOTAL ELAPSED TIME SINCE BEGINNING OF SIMULATION =   30.00000       d
 .....................................................................

                     CUMMULATIVE MASS BUDGETS AT END OF TRANSPORT STEP    1, TIME STEP    3, STRESS PERIOD    1
                     ------------------------------------------------------------------------------------------

                                                             IN                           OUT
                                                      ----------------             ----------------
                               CONSTANT CONCENTRATION:    0.000000                    0.000000    
                                        CONSTANT HEAD:    0.000000                    0.000000    
                                             RECHARGE:    233.5841                    0.000000    
                                   EVAPOTRANSPIRATION:    0.000000                   0.1376768E-03
                                MASS STORAGE (SOLUTE):   0.2713110                   -233.8527    
                            ---------------------------------------------------------------------------
                                              [TOTAL]:    233.8554       mg          -233.8526       mg

                                                          NET (IN - OUT):   0.2838135E-02
                                                   DISCREPANCY (PERCENT):   0.1213635E-02


                                          ================================================
                                                         TIME STEP NO.  004
                                          ================================================

 FROM TIME =   30.000     TO    40.000    



     1 CALLS TO GCG PACKAGE FOR TRANSPORT TIME STEP   1 IN FLOW TIME STEP   4 STRESS PERIOD   1
     5 TOTAL ITERATIONS
  MAXIMUM CONCENTRATION CHANGES FOR EACH ITERATION:
  MAX. CHANGE LAYER,ROW,COL MAX. CHANGE LAYER,ROW,COL MAX. CHANGE LAYER,ROW,COL MAX. CHANGE LAYER,ROW,COL MAX. CHANGE LAYER,ROW,COL
 ------------------------------------------------------------------------------------------------------------------------------------
   0.3361     (  1,133,185)  0.2248E-01 (  1,129,185)  0.1916E-02 (  1,129,184)  0.1567E-03 (  1,129,185)  0.7272E-05 (  1,127,179)


     1 CALLS TO GCG PACKAGE FOR TRANSPORT TIME STEP   1 IN FLOW TIME STEP   4 STRESS PERIOD   1
     5 TOTAL ITERATIONS
  MAXIMUM CONCENTRATION CHANGES FOR EACH ITERATION:
  MAX. CHANGE LAYER,ROW,COL MAX. CHANGE LAYER,ROW,COL MAX. CHANGE LAYER,ROW,COL MAX. CHANGE LAYER,ROW,COL MAX. CHANGE LAYER,ROW,COL
 ------------------------------------------------------------------------------------------------------------------------------------
   0.3361     (  1,133,185)  0.2249E-01 (  1,129,185)  0.1913E-02 (  1,129,184)  0.1560E-03 (  1,129,185)  0.7391E-05 (  1,127,179)


     1 CALLS TO GCG PACKAGE FOR TRANSPORT TIME STEP   1 IN FLOW TIME STEP   4 STRESS PERIOD   1
     5 TOTAL ITERATIONS
  MAXIMUM CONCENTRATION CHANGES FOR EACH ITERATION:
  MAX. CHANGE LAYER,ROW,COL MAX. CHANGE LAYER,ROW,COL MAX. CHANGE LAYER,ROW,COL MAX. CHANGE LAYER,ROW,COL MAX. CHANGE LAYER,ROW,COL
 ------------------------------------------------------------------------------------------------------------------------------------
   0.3461     (  1, 30, 95)  0.2887E-01 (  1, 40,113)  0.1960E-02 (  1, 41,114)  0.1441E-03 (  1, 40,115)  0.9894E-05 (  1, 40, 89)


     1 CALLS TO GCG PACKAGE FOR TRANSPORT TIME STEP   1 IN FLOW TIME STEP   4 STRESS PERIOD   1
     5 TOTAL ITERATIONS
  MAXIMUM CONCENTRATION CHANGES FOR EACH ITERATION:
  MAX. CHANGE LAYER,ROW,COL MAX. CHANGE LAYER,ROW,COL MAX. CHANGE LAYER,ROW,COL MAX. CHANGE LAYER,ROW,COL MAX. CHANGE LAYER,ROW,COL
 ------------------------------------------------------------------------------------------------------------------------------------
   0.3359     (  1,133,185)  0.2252E-01 (  1,129,185)  0.1876E-02 (  1,129,184)  0.1517E-03 (  1,129,185)  0.7868E-05 (  1,127,179)



 >>>>>>>>>>>>>>>>>>>>>>>>>>>>>>>>>>>>>>>>>>>>>>>>>>>>>>>FOR COMPONENT NO. 01<<<<<<<<<<<<<<<<<<<<<<<<<<<<<<<<<<<<<<<<<<<<<<<<<<<<<<<


                                            -------------------------------------------
                                                      TRANSPORT STEP NO.    1
                                            -------------------------------------------

 TOTAL ELAPSED TIME SINCE BEGINNING OF SIMULATION =   40.00000       d
 .....................................................................

                     CUMMULATIVE MASS BUDGETS AT END OF TRANSPORT STEP    1, TIME STEP    4, STRESS PERIOD    1
                     ------------------------------------------------------------------------------------------

                                                             IN                           OUT
                                                      ----------------             ----------------
                               CONSTANT CONCENTRATION:    0.000000                    0.000000    
                                        CONSTANT HEAD:    0.000000                   0.8879269E-31
                                             RECHARGE:    477743.0                    0.000000    
                                   EVAPOTRANSPIRATION:    0.000000                   0.2384063    
                                MASS STORAGE (SOLUTE):    273.5562                   -478014.9    
                            ---------------------------------------------------------------------------
                                              [TOTAL]:    478016.5       mg          -478014.6       mg

                                                          NET (IN - OUT):    1.906250    
                                                   DISCREPANCY (PERCENT):   0.3987841E-03



 >>>>>>>>>>>>>>>>>>>>>>>>>>>>>>>>>>>>>>>>>>>>>>>>>>>>>>>FOR COMPONENT NO. 02<<<<<<<<<<<<<<<<<<<<<<<<<<<<<<<<<<<<<<<<<<<<<<<<<<<<<<<


                                            -------------------------------------------
                                                      TRANSPORT STEP NO.    1
                                            -------------------------------------------

 TOTAL ELAPSED TIME SINCE BEGINNING OF SIMULATION =   40.00000       d
 .....................................................................

                     CUMMULATIVE MASS BUDGETS AT END OF TRANSPORT STEP    1, TIME STEP    4, STRESS PERIOD    1
                     ------------------------------------------------------------------------------------------

                                                             IN                           OUT
                                                      ----------------             ----------------
                               CONSTANT CONCENTRATION:    0.000000                    0.000000    
                                        CONSTANT HEAD:    0.000000                   0.5944888E-32
                                             RECHARGE:    46561.17                    0.000000    
                                   EVAPOTRANSPIRATION:    0.000000                   0.2318376E-01
                                MASS STORAGE (SOLUTE):    26.42556                   -46587.34    
                            ---------------------------------------------------------------------------
                                              [TOTAL]:    46587.59       mg          -46587.32       mg

                                                          NET (IN - OUT):   0.2734375    
                                                   DISCREPANCY (PERCENT):   0.5869337E-03



 >>>>>>>>>>>>>>>>>>>>>>>>>>>>>>>>>>>>>>>>>>>>>>>>>>>>>>>FOR COMPONENT NO. 03<<<<<<<<<<<<<<<<<<<<<<<<<<<<<<<<<<<<<<<<<<<<<<<<<<<<<<<


                                            -------------------------------------------
                                                      TRANSPORT STEP NO.    1
                                            -------------------------------------------

 TOTAL ELAPSED TIME SINCE BEGINNING OF SIMULATION =   40.00000       d
 .....................................................................

                     CUMMULATIVE MASS BUDGETS AT END OF TRANSPORT STEP    1, TIME STEP    4, STRESS PERIOD    1
                     ------------------------------------------------------------------------------------------

                                                             IN                           OUT
                                                      ----------------             ----------------
                               CONSTANT CONCENTRATION:    0.000000                    0.000000    
                                        CONSTANT HEAD:    0.000000                   0.9286097E-34
                                             RECHARGE:    1704.824                    0.000000    
                                   EVAPOTRANSPIRATION:    0.000000                   0.5482111E-03
                                MASS STORAGE (SOLUTE):   0.4139675                   -1705.232    
                            ---------------------------------------------------------------------------
                                              [TOTAL]:    1705.238       mg          -1705.232       mg

                                                          NET (IN - OUT):   0.6225586E-02
                                                   DISCREPANCY (PERCENT):   0.3650868E-03



 >>>>>>>>>>>>>>>>>>>>>>>>>>>>>>>>>>>>>>>>>>>>>>>>>>>>>>>FOR COMPONENT NO. 04<<<<<<<<<<<<<<<<<<<<<<<<<<<<<<<<<<<<<<<<<<<<<<<<<<<<<<<


                                            -------------------------------------------
                                                      TRANSPORT STEP NO.    1
                                            -------------------------------------------

 TOTAL ELAPSED TIME SINCE BEGINNING OF SIMULATION =   40.00000       d
 .....................................................................

                     CUMMULATIVE MASS BUDGETS AT END OF TRANSPORT STEP    1, TIME STEP    4, STRESS PERIOD    1
                     ------------------------------------------------------------------------------------------

                                                             IN                           OUT
                                                      ----------------             ----------------
                               CONSTANT CONCENTRATION:    0.000000                    0.000000    
                                        CONSTANT HEAD:    0.000000                    0.000000    
                                             RECHARGE:    311.4455                    0.000000    
                                   EVAPOTRANSPIRATION:    0.000000                   0.3438408E-03
                                MASS STORAGE (SOLUTE):   0.5166019                   -311.9595    
                            ---------------------------------------------------------------------------
                                              [TOTAL]:    311.9621       mg          -311.9592       mg

                                                          NET (IN - OUT):   0.2868652E-02
                                                   DISCREPANCY (PERCENT):   0.9195559E-03


                                          ================================================
                                                         TIME STEP NO.  005
                                          ================================================

 FROM TIME =   40.000     TO    50.000    



     1 CALLS TO GCG PACKAGE FOR TRANSPORT TIME STEP   1 IN FLOW TIME STEP   5 STRESS PERIOD   1
     5 TOTAL ITERATIONS
  MAXIMUM CONCENTRATION CHANGES FOR EACH ITERATION:
  MAX. CHANGE LAYER,ROW,COL MAX. CHANGE LAYER,ROW,COL MAX. CHANGE LAYER,ROW,COL MAX. CHANGE LAYER,ROW,COL MAX. CHANGE LAYER,ROW,COL
 ------------------------------------------------------------------------------------------------------------------------------------
   0.2495     (  1,133,185)  0.1572E-01 (  1,129,185)  0.1222E-02 (  1,129,184)  0.1010E-03 (  1,129,185)  0.4716E-05 (  1,128,185)


     1 CALLS TO GCG PACKAGE FOR TRANSPORT TIME STEP   1 IN FLOW TIME STEP   5 STRESS PERIOD   1
     5 TOTAL ITERATIONS
  MAXIMUM CONCENTRATION CHANGES FOR EACH ITERATION:
  MAX. CHANGE LAYER,ROW,COL MAX. CHANGE LAYER,ROW,COL MAX. CHANGE LAYER,ROW,COL MAX. CHANGE LAYER,ROW,COL MAX. CHANGE LAYER,ROW,COL
 ------------------------------------------------------------------------------------------------------------------------------------
   0.2495     (  1,133,185)  0.1573E-01 (  1,129,185)  0.1219E-02 (  1,129,184)  0.1005E-03 (  1,129,185)  0.4709E-05 (  1,128,185)


     1 CALLS TO GCG PACKAGE FOR TRANSPORT TIME STEP   1 IN FLOW TIME STEP   5 STRESS PERIOD   1
     4 TOTAL ITERATIONS
  MAXIMUM CONCENTRATION CHANGES FOR EACH ITERATION:
  MAX. CHANGE LAYER,ROW,COL MAX. CHANGE LAYER,ROW,COL MAX. CHANGE LAYER,ROW,COL MAX. CHANGE LAYER,ROW,COL MAX. CHANGE LAYER,ROW,COL
 ------------------------------------------------------------------------------------------------------------------------------------
   0.2596     (  1, 30, 95)  0.2149E-01 (  1, 40,113)  0.1354E-02 (  1, 41,114)  0.9765E-04 (  1, 40,115)


     1 CALLS TO GCG PACKAGE FOR TRANSPORT TIME STEP   1 IN FLOW TIME STEP   5 STRESS PERIOD   1
     4 TOTAL ITERATIONS
  MAXIMUM CONCENTRATION CHANGES FOR EACH ITERATION:
  MAX. CHANGE LAYER,ROW,COL MAX. CHANGE LAYER,ROW,COL MAX. CHANGE LAYER,ROW,COL MAX. CHANGE LAYER,ROW,COL MAX. CHANGE LAYER,ROW,COL
 ------------------------------------------------------------------------------------------------------------------------------------
   0.2494     (  1,133,185)  0.1576E-01 (  1,129,185)  0.1191E-02 (  1,129,184)  0.9775E-04 (  1,129,185)



 >>>>>>>>>>>>>>>>>>>>>>>>>>>>>>>>>>>>>>>>>>>>>>>>>>>>>>>FOR COMPONENT NO. 01<<<<<<<<<<<<<<<<<<<<<<<<<<<<<<<<<<<<<<<<<<<<<<<<<<<<<<<


                                            -------------------------------------------
                                                      TRANSPORT STEP NO.    1
                                            -------------------------------------------

 TOTAL ELAPSED TIME SINCE BEGINNING OF SIMULATION =   50.00000       d
 .....................................................................

                     CUMMULATIVE MASS BUDGETS AT END OF TRANSPORT STEP    1, TIME STEP    5, STRESS PERIOD    1
                     ------------------------------------------------------------------------------------------

                                                             IN                           OUT
                                                      ----------------             ----------------
                               CONSTANT CONCENTRATION:    0.000000                    0.000000    
                                        CONSTANT HEAD:    0.000000                   0.2299831E-29
                                             RECHARGE:    597178.7                    0.000000    
                                   EVAPOTRANSPIRATION:    0.000000                   0.4664580    
                                MASS STORAGE (SOLUTE):    432.5334                   -597609.9    
                            ---------------------------------------------------------------------------
                                              [TOTAL]:    597611.2       mg          -597609.5       mg

                                                          NET (IN - OUT):    1.750000    
                                                   DISCREPANCY (PERCENT):   0.2928329E-03



 >>>>>>>>>>>>>>>>>>>>>>>>>>>>>>>>>>>>>>>>>>>>>>>>>>>>>>>FOR COMPONENT NO. 02<<<<<<<<<<<<<<<<<<<<<<<<<<<<<<<<<<<<<<<<<<<<<<<<<<<<<<<


                                            -------------------------------------------
                                                      TRANSPORT STEP NO.    1
                                            -------------------------------------------

 TOTAL ELAPSED TIME SINCE BEGINNING OF SIMULATION =   50.00000       d
 .....................................................................

                     CUMMULATIVE MASS BUDGETS AT END OF TRANSPORT STEP    1, TIME STEP    5, STRESS PERIOD    1
                     ------------------------------------------------------------------------------------------

                                                             IN                           OUT
                                                      ----------------             ----------------
                               CONSTANT CONCENTRATION:    0.000000                    0.000000    
                                        CONSTANT HEAD:    0.000000                   0.1926162E-30
                                             RECHARGE:    58201.46                    0.000000    
                                   EVAPOTRANSPIRATION:    0.000000                   0.4536293E-01
                                MASS STORAGE (SOLUTE):    41.79360                   -58243.02    
                            ---------------------------------------------------------------------------
                                              [TOTAL]:    58243.25       mg          -58242.98       mg

                                                          NET (IN - OUT):   0.2773438    
                                                   DISCREPANCY (PERCENT):   0.4761829E-03



 >>>>>>>>>>>>>>>>>>>>>>>>>>>>>>>>>>>>>>>>>>>>>>>>>>>>>>>FOR COMPONENT NO. 03<<<<<<<<<<<<<<<<<<<<<<<<<<<<<<<<<<<<<<<<<<<<<<<<<<<<<<<


                                            -------------------------------------------
                                                      TRANSPORT STEP NO.    1
                                            -------------------------------------------

 TOTAL ELAPSED TIME SINCE BEGINNING OF SIMULATION =   50.00000       d
 .....................................................................

                     CUMMULATIVE MASS BUDGETS AT END OF TRANSPORT STEP    1, TIME STEP    5, STRESS PERIOD    1
                     ------------------------------------------------------------------------------------------

                                                             IN                           OUT
                                                      ----------------             ----------------
                               CONSTANT CONCENTRATION:    0.000000                    0.000000    
                                        CONSTANT HEAD:    0.000000                   0.5163391E-32
                                             RECHARGE:    2131.030                    0.000000    
                                   EVAPOTRANSPIRATION:    0.000000                   0.1088300E-02
                                MASS STORAGE (SOLUTE):   0.6636779                   -2131.687    
                            ---------------------------------------------------------------------------
                                              [TOTAL]:    2131.693       mg          -2131.686       mg

                                                          NET (IN - OUT):   0.7080078E-02
                                                   DISCREPANCY (PERCENT):   0.3321345E-03



 >>>>>>>>>>>>>>>>>>>>>>>>>>>>>>>>>>>>>>>>>>>>>>>>>>>>>>>FOR COMPONENT NO. 04<<<<<<<<<<<<<<<<<<<<<<<<<<<<<<<<<<<<<<<<<<<<<<<<<<<<<<<


                                            -------------------------------------------
                                                      TRANSPORT STEP NO.    1
                                            -------------------------------------------

 TOTAL ELAPSED TIME SINCE BEGINNING OF SIMULATION =   50.00000       d
 .....................................................................

                     CUMMULATIVE MASS BUDGETS AT END OF TRANSPORT STEP    1, TIME STEP    5, STRESS PERIOD    1
                     ------------------------------------------------------------------------------------------

                                                             IN                           OUT
                                                      ----------------             ----------------
                               CONSTANT CONCENTRATION:    0.000000                    0.000000    
                                        CONSTANT HEAD:    0.000000                    0.000000    
                                             RECHARGE:    389.3068                    0.000000    
                                   EVAPOTRANSPIRATION:    0.000000                   0.6639456E-03
                                MASS STORAGE (SOLUTE):   0.8119236                   -390.1166    
                            ---------------------------------------------------------------------------
                                              [TOTAL]:    390.1187       mg          -390.1159       mg

                                                          NET (IN - OUT):   0.2838135E-02
                                                   DISCREPANCY (PERCENT):   0.7275080E-03


                                          ================================================
                                                         TIME STEP NO.  006
                                          ================================================

 FROM TIME =   50.000     TO    60.000    



     1 CALLS TO GCG PACKAGE FOR TRANSPORT TIME STEP   1 IN FLOW TIME STEP   6 STRESS PERIOD   1
     4 TOTAL ITERATIONS
  MAXIMUM CONCENTRATION CHANGES FOR EACH ITERATION:
  MAX. CHANGE LAYER,ROW,COL MAX. CHANGE LAYER,ROW,COL MAX. CHANGE LAYER,ROW,COL MAX. CHANGE LAYER,ROW,COL MAX. CHANGE LAYER,ROW,COL
 ------------------------------------------------------------------------------------------------------------------------------------
   0.1976     (  1,129,179)  0.1192E-01 (  1,129,185)  0.8488E-03 (  1,129,184)  0.6855E-04 (  1,129,185)


     1 CALLS TO GCG PACKAGE FOR TRANSPORT TIME STEP   1 IN FLOW TIME STEP   6 STRESS PERIOD   1
     4 TOTAL ITERATIONS
  MAXIMUM CONCENTRATION CHANGES FOR EACH ITERATION:
  MAX. CHANGE LAYER,ROW,COL MAX. CHANGE LAYER,ROW,COL MAX. CHANGE LAYER,ROW,COL MAX. CHANGE LAYER,ROW,COL MAX. CHANGE LAYER,ROW,COL
 ------------------------------------------------------------------------------------------------------------------------------------
   0.1976     (  1,129,179)  0.1193E-01 (  1,129,185)  0.8469E-03 (  1,129,184)  0.6819E-04 (  1,129,185)


[...]

                     CUMMULATIVE MASS BUDGETS AT END OF TRANSPORT STEP    2, TIME STEP    9, STRESS PERIOD    3
                     ------------------------------------------------------------------------------------------

                                                             IN                           OUT
                                                      ----------------             ----------------
                               CONSTANT CONCENTRATION:    0.000000                    0.000000    
                                        CONSTANT HEAD:    0.000000                  -0.1084265E-13
                                             RECHARGE:    70853.84                    0.000000    
                                   EVAPOTRANSPIRATION:    0.000000                    1.435996    
                                MASS STORAGE (SOLUTE):    378.6102                   -71236.66    
                            ---------------------------------------------------------------------------
                                              [TOTAL]:    71232.45       mg          -71235.22       mg

                                                          NET (IN - OUT):   -2.765625    
                                                   DISCREPANCY (PERCENT):  -0.3882460E-02


                                          ================================================
                                                         TIME STEP NO.  010
                                          ================================================

 FROM TIME =   9100.0     TO    10000.    



     1 CALLS TO GCG PACKAGE FOR TRANSPORT TIME STEP   1 IN FLOW TIME STEP  10 STRESS PERIOD   3
    16 TOTAL ITERATIONS


     1 CALLS TO GCG PACKAGE FOR TRANSPORT TIME STEP   1 IN FLOW TIME STEP  10 STRESS PERIOD   3
    16 TOTAL ITERATIONS


     1 CALLS TO GCG PACKAGE FOR TRANSPORT TIME STEP   1 IN FLOW TIME STEP  10 STRESS PERIOD   3
    15 TOTAL ITERATIONS


     1 CALLS TO GCG PACKAGE FOR TRANSPORT TIME STEP   1 IN FLOW TIME STEP  10 STRESS PERIOD   3
    16 TOTAL ITERATIONS



 >>>>>>>>>>>>>>>>>>>>>>>>>>>>>>>>>>>>>>>>>>>>>>>>>>>>>>>FOR COMPONENT NO. 01<<<<<<<<<<<<<<<<<<<<<<<<<<<<<<<<<<<<<<<<<<<<<<<<<<<<<<<


                                            -------------------------------------------
                                                      TRANSPORT STEP NO.    1
                                            -------------------------------------------

 TOTAL ELAPSED TIME SINCE BEGINNING OF SIMULATION =   9661.084       d
 .....................................................................

                     CUMMULATIVE MASS BUDGETS AT END OF TRANSPORT STEP    1, TIME STEP   10, STRESS PERIOD    3
                     ------------------------------------------------------------------------------------------

                                                             IN                           OUT
                                                      ----------------             ----------------
                               CONSTANT CONCENTRATION:    0.000000                    0.000000    
                                        CONSTANT HEAD:    0.000000                   -18.41084    
                                             RECHARGE:   0.1153881E+09                0.000000    
                                   EVAPOTRANSPIRATION:    0.000000                    820.8319    
                                MASS STORAGE (SOLUTE):    193477.2                  -0.1155646E+09
                            ---------------------------------------------------------------------------
                                              [TOTAL]:   0.1155815E+09   mg         -0.1155638E+09   mg

                                                          NET (IN - OUT):    17752.00    
                                                   DISCREPANCY (PERCENT):   0.1536004E-01



 >>>>>>>>>>>>>>>>>>>>>>>>>>>>>>>>>>>>>>>>>>>>>>>>>>>>>>>FOR COMPONENT NO. 02<<<<<<<<<<<<<<<<<<<<<<<<<<<<<<<<<<<<<<<<<<<<<<<<<<<<<<<


                                            -------------------------------------------
                                                      TRANSPORT STEP NO.    1
                                            -------------------------------------------

 TOTAL ELAPSED TIME SINCE BEGINNING OF SIMULATION =   9661.084       d
 .....................................................................

                     CUMMULATIVE MASS BUDGETS AT END OF TRANSPORT STEP    1, TIME STEP   10, STRESS PERIOD    3
                     ------------------------------------------------------------------------------------------

                                                             IN                           OUT
                                                      ----------------             ----------------
                               CONSTANT CONCENTRATION:    0.000000                    0.000000    
                                        CONSTANT HEAD:    0.000000                   -1.841186    
                                             RECHARGE:   0.1124579E+08                0.000000    
                                   EVAPOTRANSPIRATION:    0.000000                    78.03481    
                                MASS STORAGE (SOLUTE):    17432.58                  -0.1126156E+08
                            ---------------------------------------------------------------------------
                                              [TOTAL]:   0.1126322E+08   mg         -0.1126148E+08   mg

                                                          NET (IN - OUT):    1744.000    
                                                   DISCREPANCY (PERCENT):   0.1548522E-01



 >>>>>>>>>>>>>>>>>>>>>>>>>>>>>>>>>>>>>>>>>>>>>>>>>>>>>>>FOR COMPONENT NO. 03<<<<<<<<<<<<<<<<<<<<<<<<<<<<<<<<<<<<<<<<<<<<<<<<<<<<<<<


                                            -------------------------------------------
                                                      TRANSPORT STEP NO.    1
                                            -------------------------------------------

 TOTAL ELAPSED TIME SINCE BEGINNING OF SIMULATION =   9661.084       d
 .....................................................................

                     CUMMULATIVE MASS BUDGETS AT END OF TRANSPORT STEP    1, TIME STEP   10, STRESS PERIOD    3
                     ------------------------------------------------------------------------------------------

                                                             IN                           OUT
                                                      ----------------             ----------------
                               CONSTANT CONCENTRATION:    0.000000                    0.000000    
                                        CONSTANT HEAD:    0.000000                  -0.9212656E-01
                                             RECHARGE:    411760.2                    0.000000    
                                   EVAPOTRANSPIRATION:    0.000000                    2.347260    
                                MASS STORAGE (SOLUTE):    53.96370                   -411781.8    
                            ---------------------------------------------------------------------------
                                              [TOTAL]:    411814.2       mg          -411779.5       mg

                                                          NET (IN - OUT):    34.65625    
                                                   DISCREPANCY (PERCENT):   0.8415862E-02



 >>>>>>>>>>>>>>>>>>>>>>>>>>>>>>>>>>>>>>>>>>>>>>>>>>>>>>>FOR COMPONENT NO. 04<<<<<<<<<<<<<<<<<<<<<<<<<<<<<<<<<<<<<<<<<<<<<<<<<<<<<<<


                                            -------------------------------------------
                                                      TRANSPORT STEP NO.    1
                                            -------------------------------------------

 TOTAL ELAPSED TIME SINCE BEGINNING OF SIMULATION =   9661.084       d
 .....................................................................

                     CUMMULATIVE MASS BUDGETS AT END OF TRANSPORT STEP    1, TIME STEP   10, STRESS PERIOD    3
                     ------------------------------------------------------------------------------------------

                                                             IN                           OUT
                                                      ----------------             ----------------
                               CONSTANT CONCENTRATION:    0.000000                    0.000000    
                                        CONSTANT HEAD:    0.000000                  -0.4256721E-13
                                             RECHARGE:    75222.52                    0.000000    
                                   EVAPOTRANSPIRATION:    0.000000                    1.645882    
                                MASS STORAGE (SOLUTE):    387.1311                   -75614.10    
                            ---------------------------------------------------------------------------
                                              [TOTAL]:    75609.65       mg          -75612.45       mg

                                                          NET (IN - OUT):   -2.804688    
                                                   DISCREPANCY (PERCENT):  -0.3709362E-02
     1 CALLS TO GCG PACKAGE FOR TRANSPORT TIME STEP   2 IN FLOW TIME STEP  10 STRESS PERIOD   3
    13 TOTAL ITERATIONS
  MAXIMUM CONCENTRATION CHANGES FOR EACH ITERATION:
  MAX. CHANGE LAYER,ROW,COL MAX. CHANGE LAYER,ROW,COL MAX. CHANGE LAYER,ROW,COL MAX. CHANGE LAYER,ROW,COL MAX. CHANGE LAYER,ROW,COL
 ------------------------------------------------------------------------------------------------------------------------------------
   0.1862     (  1,127,180)  0.1689     (  1,128,180)  0.8057E-01 (  1,129,180)  0.3452E-01 (  1,129,183)  0.2301E-01 (  1,128,183)
   0.1021E-01 (  1,128,185)  0.5231E-02 (  1,127,185)  0.2439E-02 (  1,126,185)  0.9364E-03 (  1,124,186)  0.4885E-03 (  1,127,179)
   0.2221E-03 (  1,128,180)  0.1240E-03 (  1,129,184)  0.7629E-04 (  1,130,184)
     1 CALLS TO GCG PACKAGE FOR TRANSPORT TIME STEP   2 IN FLOW TIME STEP  10 STRESS PERIOD   3
    13 TOTAL ITERATIONS
  MAXIMUM CONCENTRATION CHANGES FOR EACH ITERATION:
  MAX. CHANGE LAYER,ROW,COL MAX. CHANGE LAYER,ROW,COL MAX. CHANGE LAYER,ROW,COL MAX. CHANGE LAYER,ROW,COL MAX. CHANGE LAYER,ROW,COL
 ------------------------------------------------------------------------------------------------------------------------------------
   0.1865     (  1,127,180)  0.1694     (  1,128,180)  0.8055E-01 (  1,129,180)  0.3469E-01 (  1,129,183)  0.2297E-01 (  1,128,183)
   0.1010E-01 (  1,128,185)  0.5220E-02 (  1,127,185)  0.2440E-02 (  1,126,185)  0.9423E-03 (  1,128,186)  0.4888E-03 (  1,127,179)
   0.2230E-03 (  1,128,180)  0.1221E-03 (  1,129,184)  0.7546E-04 (  1,130,184)
     1 CALLS TO GCG PACKAGE FOR TRANSPORT TIME STEP   2 IN FLOW TIME STEP  10 STRESS PERIOD   3
    12 TOTAL ITERATIONS
  MAXIMUM CONCENTRATION CHANGES FOR EACH ITERATION:
  MAX. CHANGE LAYER,ROW,COL MAX. CHANGE LAYER,ROW,COL MAX. CHANGE LAYER,ROW,COL MAX. CHANGE LAYER,ROW,COL MAX. CHANGE LAYER,ROW,COL
 ------------------------------------------------------------------------------------------------------------------------------------
   0.6733E-01 (  1, 79, 91)  0.2312E-01 (  1, 39, 89)  0.1857E-01 (  1, 79, 92)  0.9844E-02 (  1, 41, 89)  0.5225E-02 (  1, 40, 89)
   0.2783E-02 (  1, 78, 92)  0.1208E-02 (  1, 40, 89)  0.6343E-03 (  1, 78, 92)  0.3268E-03 (  1, 40,114)  0.1567E-03 (  1, 40, 91)
   0.1072E-03 (  1, 41,113)  0.4810E-04 (  1, 41,114)
     1 CALLS TO GCG PACKAGE FOR TRANSPORT TIME STEP   2 IN FLOW TIME STEP  10 STRESS PERIOD   3
    13 TOTAL ITERATIONS
  MAXIMUM CONCENTRATION CHANGES FOR EACH ITERATION:
  MAX. CHANGE LAYER,ROW,COL MAX. CHANGE LAYER,ROW,COL MAX. CHANGE LAYER,ROW,COL MAX. CHANGE LAYER,ROW,COL MAX. CHANGE LAYER,ROW,COL
 ------------------------------------------------------------------------------------------------------------------------------------
   0.1828     (  1,127,180)  0.1651     (  1,128,180)  0.7899E-01 (  1,129,180)  0.3434E-01 (  1,129,183)  0.2376E-01 (  1,128,183)
   0.1069E-01 (  1,128,182)  0.5184E-02 (  1,127,185)  0.2472E-02 (  1,126,185)  0.9356E-03 (  1,125,184)  0.5493E-03 (  1,127,179)
   0.2425E-03 (  1,128,180)  0.1254E-03 (  1,127,180)  0.7021E-04 (  1,130,184)



 >>>>>>>>>>>>>>>>>>>>>>>>>>>>>>>>>>>>>>>>>>>>>>>>>>>>>>>FOR COMPONENT NO. 01<<<<<<<<<<<<<<<<<<<<<<<<<<<<<<<<<<<<<<<<<<<<<<<<<<<<<<<


                                            -------------------------------------------
                                                      TRANSPORT STEP NO.    2
                                            -------------------------------------------

 TOTAL ELAPSED TIME SINCE BEGINNING OF SIMULATION =   10000.00       d
 .....................................................................

                     CUMMULATIVE MASS BUDGETS AT END OF TRANSPORT STEP    2, TIME STEP   10, STRESS PERIOD    3
                     ------------------------------------------------------------------------------------------

                                                             IN                           OUT
                                                      ----------------             ----------------
                               CONSTANT CONCENTRATION:    0.000000                    0.000000    
                                        CONSTANT HEAD:    0.000000                   -25.62132    
                                             RECHARGE:   0.1194359E+09                0.000000    
                                   EVAPOTRANSPIRATION:    0.000000                    886.0433    
                                MASS STORAGE (SOLUTE):    239771.9                  -0.1196584E+09
                            ---------------------------------------------------------------------------
                                              [TOTAL]:   0.1196757E+09   mg         -0.1196575E+09   mg

                                                          NET (IN - OUT):    18208.00    
                                                   DISCREPANCY (PERCENT):   0.1521561E-01



 >>>>>>>>>>>>>>>>>>>>>>>>>>>>>>>>>>>>>>>>>>>>>>>>>>>>>>>FOR COMPONENT NO. 02<<<<<<<<<<<<<<<<<<<<<<<<<<<<<<<<<<<<<<<<<<<<<<<<<<<<<<<


                                            -------------------------------------------
                                                      TRANSPORT STEP NO.    2
                                            -------------------------------------------

 TOTAL ELAPSED TIME SINCE BEGINNING OF SIMULATION =   10000.00       d
 .....................................................................

                     CUMMULATIVE MASS BUDGETS AT END OF TRANSPORT STEP    2, TIME STEP   10, STRESS PERIOD    3
                     ------------------------------------------------------------------------------------------

                                                             IN                           OUT
                                                      ----------------             ----------------
                               CONSTANT CONCENTRATION:    0.000000                    0.000000    
                                        CONSTANT HEAD:    0.000000                   -2.562283    
                                             RECHARGE:   0.1164030E+08                0.000000    
                                   EVAPOTRANSPIRATION:    0.000000                    83.99214    
                                MASS STORAGE (SOLUTE):    21601.03                  -0.1166019E+08
                            ---------------------------------------------------------------------------
                                              [TOTAL]:   0.1166190E+08   mg         -0.1166011E+08   mg

                                                          NET (IN - OUT):    1795.000    
                                                   DISCREPANCY (PERCENT):   0.1539319E-01



 >>>>>>>>>>>>>>>>>>>>>>>>>>>>>>>>>>>>>>>>>>>>>>>>>>>>>>>FOR COMPONENT NO. 03<<<<<<<<<<<<<<<<<<<<<<<<<<<<<<<<<<<<<<<<<<<<<<<<<<<<<<<


                                            -------------------------------------------
                                                      TRANSPORT STEP NO.    2
                                            -------------------------------------------

 TOTAL ELAPSED TIME SINCE BEGINNING OF SIMULATION =   10000.00       d
 .....................................................................

                     CUMMULATIVE MASS BUDGETS AT END OF TRANSPORT STEP    2, TIME STEP   10, STRESS PERIOD    3
                     ------------------------------------------------------------------------------------------

                                                             IN                           OUT
                                                      ----------------             ----------------
                               CONSTANT CONCENTRATION:    0.000000                    0.000000    
                                        CONSTANT HEAD:    0.000000                  -0.1282142    
                                             RECHARGE:    426205.0                    0.000000    
                                   EVAPOTRANSPIRATION:    0.000000                    2.521398    
                                MASS STORAGE (SOLUTE):    54.69073                   -426226.1    
                            ---------------------------------------------------------------------------
                                              [TOTAL]:    426259.7       mg          -426223.7       mg

                                                          NET (IN - OUT):    35.93750    
                                                   DISCREPANCY (PERCENT):   0.8431249E-02



 >>>>>>>>>>>>>>>>>>>>>>>>>>>>>>>>>>>>>>>>>>>>>>>>>>>>>>>FOR COMPONENT NO. 04<<<<<<<<<<<<<<<<<<<<<<<<<<<<<<<<<<<<<<<<<<<<<<<<<<<<<<<


                                            -------------------------------------------
                                                      TRANSPORT STEP NO.    2
                                            -------------------------------------------

 TOTAL ELAPSED TIME SINCE BEGINNING OF SIMULATION =   10000.00       d
 .....................................................................

                     CUMMULATIVE MASS BUDGETS AT END OF TRANSPORT STEP    2, TIME STEP   10, STRESS PERIOD    3
                     ------------------------------------------------------------------------------------------

                                                             IN                           OUT
                                                      ----------------             ----------------
                               CONSTANT CONCENTRATION:    0.000000                    0.000000    
                                        CONSTANT HEAD:    0.000000                  -0.7972597E-13
                                             RECHARGE:    77861.36                    0.000000    
                                   EVAPOTRANSPIRATION:    0.000000                    1.781332    
                                MASS STORAGE (SOLUTE):    486.8893                   -78353.02    
                            ---------------------------------------------------------------------------
                                              [TOTAL]:    78348.25       mg          -78351.24       mg

                                                          NET (IN - OUT):   -2.992188    
                                                   DISCREPANCY (PERCENT):  -0.3819013E-02
  ----- 
 | M T |
 | 3 D | END OF MODEL OUTPUT
  ----- 
