
                              +++++++++++++++++++++++++++++++++++++++++++++++++++++++++++++++++++++++
                              +                                                                     +
                              +                               MT3DMS                                +
                              +             A Modular 3D Multi-Species Transport Model              +
                              +    For Simulation of Advection, Dispersion and Chemical Reactions   +
                              +                of Contaminants in Groundwater Systems               +
                              +                                                                     +
                              +++++++++++++++++++++++++++++++++++++++++++++++++++++++++++++++++++++++

  ----- 
 | M T | GMS MT3D Simulation                                                             
 | 3 D | 08 August 2018                                                                  
  ----- 
 THE TRANSPORT MODEL CONSISTS OF     3 LAYER(S)  287 ROW(S)  326 COLUMN(S)
 NUMBER OF STRESS PERIOD(S) FOR TRANSPORT SIMULATION =    3
 NUMBER OF ALL COMPONENTS INCLUDED IN SIMULATION =    3
 NUMBER OF MOBILE COMPONENTS INCLUDED IN SIMULATION =    3
 UNIT FOR TIME IS    d;  UNIT FOR LENGTH IS    m;  UNIT FOR MASS IS   mg
 OPTIONAL PACKAGES INCLUDED IN CURRENT SIMULATION:
  o ADV   ON UNIT  2
  o DSP   ON UNIT  3
  o SSM   ON UNIT  4
  o GCG   ON UNIT  9
  o TOB   ON UNIT 12

 BTN5 -- BASIC TRANSPORT PACKAGE, VERSION 5, FEBRUARY 2010, INPUT READ FROM UNIT  1
    7673310 ELEMENTS OF THE  X ARRAY USED BY THE BTN PACKAGE
     842061 ELEMENTS OF THE IX ARRAY USED BY THE BTN PACKAGE

 FMI5 -- FLOW MODEL INTERFACE PACKAGE, VERSION 5, FEBRUARY 2010, INPUT READ FROM UNIT 10
 FLOW MODEL IS STEADY-STATE
 FLOW MODEL CONTAINS CONSTANT-HEAD CELLS

 ADV5 -- ADVECTION PACKAGE, VERSION 5, FEBRUARY 2010, INPUT READ FROM UNIT  2
 ADVECTION IS SOLVED WITH THE ULTIMATE SCHEME
 COURANT NUMBER ALLOWED IN SOLVING THE ADVECTION TERM =  1.00    
          0 ELEMENTS OF THE  X ARRAY USED BY THE ADV PACKAGE
          0 ELEMENTS OF THE IX ARRAY USED BY THE ADV PACKAGE

 DSP5 -- DISPERSION PACKAGE, VERSION 5, FEBRUARY 2010, INPUT READ FROM UNIT  3
    5333040 ELEMENTS OF THE  X ARRAY USED BY THE DSP PACKAGE
          0 ELEMENTS OF THE IX ARRAY USED BY THE DSP PACKAGE

 SSM5 -- SINK & SOURCE MIXING PACKAGE, VERSION 5, FEBRUARY 2010, INPUT READ FROM UNIT  4
 HEADER LINE OF THE SSM PACKAGE INPUT FILE:
  F F T T F F                                                                                                                                                                                            
 MAJOR STRESS COMPONENTS PRESENT IN THE FLOW MODEL:
  o RECHARGE [RCH]
  o EVAPOTRANSPIRATION [EVT]
 MAXIMUM NUMBER OF POINT SINKS/SOURCES =   10620
     907796 ELEMENTS OF THE  X ARRAY USED BY THE SSM PACKAGE
     187124 ELEMENTS OF THE IX ARRAY BY THE SSM PACKAGE

 GCG5 -- GENERALIZED CONJUGATE GRADIENT SOLVER PACKAGE, VERSION 5, FEBRUARY 2010 INPUT READ FROM UNIT  9
 MAXIMUM OF    1 OUTER ITERATIONS
        AND   50 INNER ITERATIONS ALLOWED FOR CLOSURE
 THE PRECONDITIONING TYPE SELECTED IS JACOBI.
 DISPERSION CROSS TERMS LUMPED INTO RIGHT-HAND-SIDE
    4210340 ELEMENTS OF THE  X ARRAY USED BY THE GCG PACKAGE
        150 ELEMENTS OF THE IX ARRAY USED BY THE GCG PACKAGE

 TOB5 -- TRANSPORT OBSERVATION PACKAGE, VERSION 5, FEBRUARY 2010, INPUT READ FROM UNIT 12
# TOBS package input file (GMS - 6.0)                                                                                                                                                                   
 MAXIMUM NUMBER OF CONC OBSERVATION WELLS =      0
 MAXIMUM NUMBER OF MASS-FLUX OBSERVATIONS =      0
 MAXIMUM NUMBER OF CELLS IN A FLUX OBJECT =      0
         27 ELEMENTS OF THE  X ARRAY USED BY THE TOB PACKAGE
          3 ELEMENTS OF THE IX ARRAY USED BY THE TOB PACKAGE

 ..........................................
 ELEMENTS OF THE  X ARRAY USED =  18124514
 ELEMENTS OF THE IX ARRAY USED =   1029339
 ..........................................

 LAYER NUMBER  AQUIFER TYPE
 ------------  ------------
       1            1
       2            0
       3            0

                           WIDTH ALONG ROWS (DELR)  READ ON UNIT  1 USING FORMAT: "           (10G15.6)"
                           -----------------------------------------------------------------------------

            1           2           3           4           5           6           7           8           9          10
           11          12          13          14          15          16          17          18          19          20
           21          22          23          24          25          26          27          28          29          30
           31          32          33          34          35          36          37          38          39          40
           41          42          43          44          45          46          47          48          49          50
           51          52          53          54          55          56          57          58          59          60
           61          62          63          64          65          66          67          68          69          70
           71          72          73          74          75          76          77          78          79          80
           81          82          83          84          85          86          87          88          89          90
           91          92          93          94          95          96          97          98          99         100
          101         102         103         104         105         106         107         108         109         110
          111         112         113         114         115         116         117         118         119         120
          121         122         123         124         125         126         127         128         129         130
          131         132         133         134         135         136         137         138         139         140
          141         142         143         144         145         146         147         148         149         150
          151         152         153         154         155         156         157         158         159         160
          161         162         163         164         165         166         167         168         169         170
          171         172         173         174         175         176         177         178         179         180
          181         182         183         184         185         186         187         188         189         190
          191         192         193         194         195         196         197         198         199         200
          201         202         203         204         205         206         207         208         209         210
          211         212         213         214         215         216         217         218         219         220
          221         222         223         224         225         226         227         228         229         230
          231         232         233         234         235         236         237         238         239         240
          241         242         243         244         245         246         247         248         249         250
          251         252         253         254         255         256         257         258         259         260
          261         262         263         264         265         266         267         268         269         270
          271         272         273         274         275         276         277         278         279         280
          281         282         283         284         285         286         287         288         289         290
          291         292         293         294         295         296         297         298         299         300
          301         302         303         304         305         306         307         308         309         310
          311         312         313         314         315         316         317         318         319         320
          321         322         323         324         325         326
 .............................................................................................................................
   1    18.50       18.50       18.50       18.50       18.50       18.50       18.50       17.97       17.11       16.30    
        15.52       14.78       14.08       13.41       12.77       12.16       11.58       11.03       10.51       10.01    
        9.530       9.076       8.644       8.232       7.840       7.467       7.111       6.773       6.450       6.143    
        5.851       5.572       5.307       5.054       4.813       4.584       4.366       4.158       3.960       3.771    
        3.592       3.421       3.258       3.103       2.955       2.814       2.680       2.553       2.431       2.315    
        2.205       2.100       2.000       2.100       2.205       2.315       2.431       2.553       2.680       2.814    
        2.955       3.103       3.258       3.421       3.592       3.771       3.960       4.158       4.366       4.584    
        4.813       5.054       5.307       5.572       5.851       6.143       6.450       6.773       7.111       7.467    
        7.840       8.232       8.537       8.537       8.537       8.537       8.537       8.537       8.537       8.537    
        8.537       8.537       8.537       8.537       8.232       7.840       7.467       7.111       6.773       6.450    
        6.143       5.851       5.572       5.307       5.054       4.813       4.584       4.366       4.158       3.960    
        3.771       3.592       3.421       3.258       3.103       2.955       2.814       2.680       2.553       2.431    
        2.315       2.205       2.100       2.000       2.100       2.205       2.315       2.431       2.553       2.680    
        2.814       2.955       3.103       3.258       3.421       3.592       3.771       3.960       4.158       4.366    
        4.584       4.813       5.054       5.307       5.572       5.851       6.143       6.450       6.773       7.111    
        7.467       7.840       8.232       8.644       9.076       9.530       10.01       10.51       11.03       11.58    
        12.16       12.77       13.41       14.08       14.78       15.52       16.30       17.11       17.97       18.87    
        19.81       20.80       21.84       22.93       24.08       25.29       26.55       27.88       29.27       30.73    
        32.27       33.45       33.45       33.45       33.45       32.27       30.73       29.27       27.88       26.55    
        25.29       24.08       22.93       21.84       20.80       19.81       18.87       17.97       17.11       16.30    
        15.52       14.78       14.08       13.41       12.77       12.16       11.58       11.03       10.51       10.01    
        9.530       9.076       8.644       8.232       7.840       7.467       7.111       6.773       6.450       6.143    
        5.851       5.572       5.307       5.054       4.813       4.584       4.366       4.158       3.960       3.771    
        3.592       3.421       3.258       3.103       2.955       2.814       2.680       2.553       2.431       2.315    
        2.205       2.100       2.000       2.100       2.205       2.315       2.431       2.553       2.680       2.814    
        2.955       3.103       3.258       3.421       3.592       3.771       3.960       4.158       4.366       4.584    
        4.813       5.054       5.307       5.572       5.851       6.143       6.450       6.773       7.111       7.467    
        7.840       8.232       8.644       9.076       9.530       10.01       10.51       11.03       11.58       12.16    
        12.77       13.41       14.08       14.78       15.52       16.30       17.11       17.97       18.87       19.81    
        20.80       21.84       22.93       24.08       25.29       26.55       27.88       29.27       30.73       32.27    
        33.89       35.58       37.36       39.23       41.19       43.25       45.41       47.68       47.98       47.98    
        47.98       47.98       47.98       47.98       47.98       47.98       47.98       47.98       47.98       47.98    
        47.98       47.98       47.98       47.98       47.98       47.98    

                           WIDTH ALONG COLS (DELC)  READ ON UNIT  1 USING FORMAT: "           (10G15.6)"
                           -----------------------------------------------------------------------------

            1           2           3           4           5           6           7           8           9          10
           11          12          13          14          15          16          17          18          19          20
           21          22          23          24          25          26          27          28          29          30
           31          32          33          34          35          36          37          38          39          40
           41          42          43          44          45          46          47          48          49          50
           51          52          53          54          55          56          57          58          59          60
           61          62          63          64          65          66          67          68          69          70
           71          72          73          74          75          76          77          78          79          80
           81          82          83          84          85          86          87          88          89          90
           91          92          93          94          95          96          97          98          99         100
          101         102         103         104         105         106         107         108         109         110
          111         112         113         114         115         116         117         118         119         120
          121         122         123         124         125         126         127         128         129         130
          131         132         133         134         135         136         137         138         139         140
          141         142         143         144         145         146         147         148         149         150
          151         152         153         154         155         156         157         158         159         160
          161         162         163         164         165         166         167         168         169         170
          171         172         173         174         175         176         177         178         179         180
          181         182         183         184         185         186         187         188         189         190
          191         192         193         194         195         196         197         198         199         200
          201         202         203         204         205         206         207         208         209         210
          211         212         213         214         215         216         217         218         219         220
          221         222         223         224         225         226         227         228         229         230
          231         232         233         234         235         236         237         238         239         240
          241         242         243         244         245         246         247         248         249         250
          251         252         253         254         255         256         257         258         259         260
          261         262         263         264         265         266         267         268         269         270
          271         272         273         274         275         276         277         278         279         280
          281         282         283         284         285         286         287
 .............................................................................................................................
   1    49.79       49.79       49.79       49.79       49.79       49.79       49.79       49.79       49.79       49.79    
        49.79       49.79       49.79       49.79       49.79       49.79       49.79       49.79       49.79       49.79    
        49.79       49.79       49.79       49.79       49.79       49.79       49.79       49.79       49.79       49.79    
        49.79       49.79       49.79       49.79       49.79       49.79       49.79       49.79       49.79       49.79    
        49.79       49.79       49.79       49.79       49.79       49.79       49.79       49.79       49.79       49.79    
        49.79       49.79       49.79       49.79       47.68       45.41       43.25       41.19       39.23       37.36    
        35.58       33.89       32.27       30.73       29.27       27.88       26.55       25.29       24.08       22.93    
        21.84       20.80       19.81       18.87       17.97       17.11       16.30       15.52       14.78       14.08    
        13.41       12.77       12.16       11.58       11.03       10.51       10.01       9.530       9.076       8.644    
        8.232       7.840       7.467       7.111       6.773       6.450       6.143       5.851       5.572       5.307    
        5.054       4.813       4.584       4.366       4.158       3.960       3.771       3.592       3.421       3.258    
        3.103       2.955       2.814       2.680       2.553       2.431       2.315       2.205       2.100       2.000    
        2.100       2.205       2.315       2.431       2.553       2.680       2.814       2.955       3.103       3.258    
        3.421       3.592       3.771       3.960       4.158       4.366       4.584       4.813       5.054       5.307    
        5.572       5.851       6.143       6.450       6.773       7.111       7.467       7.840       8.151       8.151    
        8.151       8.151       8.151       8.151       8.151       8.151       8.151       8.151       8.151       8.151    
        8.151       8.151       7.840       7.467       7.111       6.773       6.450       6.143       5.851       5.572    
        5.307       5.054       4.813       4.584       4.366       4.158       3.960       3.771       3.592       3.421    
        3.258       3.103       2.955       2.814       2.680       2.553       2.431       2.315       2.205       2.100    
        2.000       2.100       2.205       2.315       2.390       2.390       2.390       2.390       2.390       2.390    
        2.390       2.390       2.390       2.390       2.390       2.390       2.390       2.390       2.315       2.205    
        2.100       2.000       2.100       2.205       2.315       2.431       2.553       2.680       2.814       2.955    
        3.103       3.258       3.421       3.592       3.771       3.960       4.158       4.366       4.584       4.813    
        5.054       5.307       5.572       5.851       6.143       6.450       6.773       7.111       7.467       7.840    
        8.232       8.644       9.076       9.530       10.01       10.51       11.03       11.58       12.16       12.77    
        13.41       14.08       14.78       15.52       16.30       17.11       17.97       18.87       19.81       20.80    
        21.84       22.93       24.08       25.29       26.55       27.88       29.27       30.73       32.27       33.89    
        35.58       37.36       39.23       41.19       43.25       45.41       46.86       46.86       46.86       46.86    
        46.86       46.86       46.86       46.86       46.86       46.86       46.86    

                           TOP ELEV. OF 1ST LAYER   READ ON UNIT  1 USING FORMAT: "           (10G15.6)"
                           -----------------------------------------------------------------------------

                     CELL THICKNESS (DZ)      FOR LAYER  1 READ ON UNIT  1 USING FORMAT: "           (10G15.6)"
                     ------------------------------------------------------------------------------------------

                     CELL THICKNESS (DZ)      FOR LAYER  2 READ ON UNIT  1 USING FORMAT: "           (10G15.6)"
                     ------------------------------------------------------------------------------------------

                     CELL THICKNESS (DZ)      FOR LAYER  3 READ ON UNIT  1 USING FORMAT: "           (10G15.6)"
                     ------------------------------------------------------------------------------------------
                                       POROSITY                 =  0.3000000     FOR LAYER  1
                                       POROSITY                 =  0.3000000     FOR LAYER  2
                                       POROSITY                 =  0.3000000     FOR LAYER  3

                     CONCN. BOUNDARY ARRAY    FOR LAYER  1 READ ON UNIT  1 USING FORMAT: "              (30I3)"
                     ------------------------------------------------------------------------------------------

                     CONCN. BOUNDARY ARRAY    FOR LAYER  2 READ ON UNIT  1 USING FORMAT: "              (30I3)"
                     ------------------------------------------------------------------------------------------

                     CONCN. BOUNDARY ARRAY    FOR LAYER  3 READ ON UNIT  1 USING FORMAT: "              (30I3)"
                     ------------------------------------------------------------------------------------------
                                       INITIAL CONC.: COMP.  01 =   0.000000     FOR LAYER  1
                                       INITIAL CONC.: COMP.  01 =   0.000000     FOR LAYER  2
                                       INITIAL CONC.: COMP.  01 =   0.000000     FOR LAYER  3
                                       INITIAL CONC.: COMP.  02 =   0.000000     FOR LAYER  1
                                       INITIAL CONC.: COMP.  02 =   0.000000     FOR LAYER  2
                                       INITIAL CONC.: COMP.  02 =   0.000000     FOR LAYER  3
                                       INITIAL CONC.: COMP.  03 =   0.000000     FOR LAYER  1
                                       INITIAL CONC.: COMP.  03 =   0.000000     FOR LAYER  2
                                       INITIAL CONC.: COMP.  03 =   0.000000     FOR LAYER  3

 VALUE INDICATING INACTIVE CONCENTRATION CELLS =   -999.0000    
 MINIMUM SATURATED THICKNESS [THKMIN] ALLOWED =  0.0000 OF TOTAL CELL THICKNESS


 OUTPUT CONTROL OPTIONS
 ----------------------

 DO NOT PRINT CELL CONCENTRATION
 DO NOT PRINT PARTICLE NUMBER IN EACH CELL
 DO NOT PRINT RETARDATION FACTOR
 DO NOT PRINT DISPERSION COEFFICIENT
 SAVE DISSOLVED PHASE CONCENTRATIONS IN UNFORMATTED FILES [MT3Dnnn.UCN]
  FOR EACH SPECIES ON UNITS 201 AND ABOVE

 SIMULATION RESULTS ARE SAVED EVERY   1 TRANSPORT STEP(S)

 NUMBER OF OBSERVATION POINTS =    0

 SAVE ONE-LINE SUMMARY OF MASS BUDGETS IN FILES [MT3Dnnn.MAS]
  FOR EACH SPECIES ON UNITS 601 AND ABOVE, EVERY  1 TRANSPORT STEPS

 MAXIMUM LENGTH ALONG THE X (J) AXIS =   4063.177    
 MAXIMUM LENGTH ALONG THE Y (I) AXIS =   5487.241    
 MAXIMUM LENGTH ALONG THE Z (K) AXIS =   35.00000    


 ADVECTION SOLUTION OPTIONS
 --------------------------

 ADVECTION IS SOLVED WITH THE ULTIMATE SCHEME
 COURANT NUMBER ALLOWED IN SOLVING THE ADVECTION TERM =  1.00    


 DISPERSION INPUT PARAMETERS
 ---------------------------


                     LONG. DISPERSIVITY (AL)  FOR LAYER  1 READ ON UNIT  3 USING FORMAT: "           (10G15.6)"
                     ------------------------------------------------------------------------------------------

                     LONG. DISPERSIVITY (AL)  FOR LAYER  2 READ ON UNIT  3 USING FORMAT: "           (10G15.6)"
                     ------------------------------------------------------------------------------------------

                     LONG. DISPERSIVITY (AL)  FOR LAYER  3 READ ON UNIT  3 USING FORMAT: "           (10G15.6)"
                     ------------------------------------------------------------------------------------------
                                       H. TRANS./LONG. DISP.    =  0.1000000    
                                       V. TRANS./LONG. DISP.    =  0.1000000E-01
                                       DIFFUSION COEFFICIENT    =   0.000000    



                                               SOLUTION BY THE GENERALIZED CONJUGATE GRADIENT METHOD
                                               -----------------------------------------------------
                                     MAXIMUM OUTER ITERATIONS ALLOWED FOR CLOSURE =        1
                                     MAXIMUM INNER ITERATIONS ALLOWED FOR CLOSURE =       50
                                                    PRECONDITIONING TYPE SELECTED =    1
                                                           ACCELERATION PARAMETER =     1.0000    
                                       CONCENTRATION CHANGE CRITERION FOR CLOSURE =    0.10000E-03
                                       GCG CONCENTRATION CHANGE PRINTOUT INTERVAL =      999


 TRANSPORT OBSERVATION INPUT DATA
 --------------------------------

 NUMBER OF CONCENTRATION OBSERVATION WELLS:     0
    MULTIPLIER FOR OBSERVED CONCENTRATIONS:    1.000    
    OPTION FOR CALCULATING RESIDUAL ERRORS:     1
         OPTION FOR LOGARITHMIC CONVERSION:     0
 OPTION FOR INTERPOLATING CALCULATED CONC.:     0

 OBS_NAME     LAYER  ROW  COL. SPECIES  OBS_TIME   ROW_OFFSET  COL_OFFSET    WEIGHT      OBS_CONC
 ...................................................................................................


                                   ++++++++++++++++++++++++++++++++++++++++++++++++++++++++++++++
                                                       STRESS PERIOD NO.  001
                                   ++++++++++++++++++++++++++++++++++++++++++++++++++++++++++++++


 LENGTH OF CURRENT STRESS PERIOD =   100.0000    
 NUMBER OF TIME STEPS FOR CURRENT STRESS PERIOD =   10
 TIME STEP MULTIPLIER USED IN FLOW SOLUTION =   1.000000    

 ***Type of Transport Simulation is TRANSIENT

 USER-SPECIFIED TRANSPORT STEPSIZE =   0.000000       d
 MAXIMUM NUMBER OF TRANSPORT STEPS ALLOWED  IN ONE FLOW TIME STEP =      1000
 MULTIPLIER FOR SUCCESSIVE TRANSPORT STEPS  [USED IN IMPLICIT SCHEMES] =     1.000
 MAXIMUM TRANSPORT STEP SIZE  [USED IN IMPLICIT SCHEMES] =   0.000000       d

 CONCENTRATION OF RECHARGE FLUXES WILL BE READ IN STRESS PERIOD  1

                           RECH. CONC. COMP.  01    READ ON UNIT  4 USING FORMAT: "           (10G15.6)"
                           -----------------------------------------------------------------------------

                           RECH. CONC. COMP.  02    READ ON UNIT  4 USING FORMAT: "           (10G15.6)"
                           -----------------------------------------------------------------------------

                           RECH. CONC. COMP.  03    READ ON UNIT  4 USING FORMAT: "           (10G15.6)"
                           -----------------------------------------------------------------------------

 CONCENTRATION OF E. T. FLUXES WILL BE READ IN STRESS PERIOD  1
                                       E. T. CONC. COMP.  01    =   0.000000    
                                       E. T. CONC. COMP.  02    =   0.000000    
                                       E. T. CONC. COMP.  03    =   0.000000    

 NO. OF POINT SINKS/SOURCES OF SPECIFIED CONCONCENTRATIONS =    0 IN STRESS PERIOD  1


                                          ================================================
                                                         TIME STEP NO.  001
                                          ================================================

 FROM TIME =   0.0000     TO    10.000    


                    "THKSAT          " FLOW TERMS FOR TIME STEP  1, STRESS PERIOD  1 READ UNFORMATTED ON UNIT 10
                    --------------------------------------------------------------------------------------------

                    "QXX             " FLOW TERMS FOR TIME STEP  1, STRESS PERIOD  1 READ UNFORMATTED ON UNIT 10
                    --------------------------------------------------------------------------------------------

                    "QYY             " FLOW TERMS FOR TIME STEP  1, STRESS PERIOD  1 READ UNFORMATTED ON UNIT 10
                    --------------------------------------------------------------------------------------------

                    "QZZ             " FLOW TERMS FOR TIME STEP  1, STRESS PERIOD  1 READ UNFORMATTED ON UNIT 10
                    --------------------------------------------------------------------------------------------

 MAXIMUM STEPSIZE DURING WHICH ANY PARTICLE CANNOT MOVE MORE THAN ONE CELL
 =  468.5    (WHEN MIN. R.F.=1)  AT K=   2, I=  21, J=  54

 MAXIMUM STEPSIZE WHICH MEETS STABILITY CRITERION OF THE ADVECTION TERM
 (FOR PURE FINITE-DIFFERENCE OPTION, MIXELM=0) 
 =  383.5    (WHEN MIN. R.F.=1)  AT K=   2, I=  22, J=  53

                    "CNH             " FLOW TERMS FOR TIME STEP  1, STRESS PERIOD  1 READ UNFORMATTED ON UNIT 10
                    --------------------------------------------------------------------------------------------

                    "RCH             " FLOW TERMS FOR TIME STEP  1, STRESS PERIOD  1 READ UNFORMATTED ON UNIT 10
                    --------------------------------------------------------------------------------------------

                    "EVT             " FLOW TERMS FOR TIME STEP  1, STRESS PERIOD  1 READ UNFORMATTED ON UNIT 10
                    --------------------------------------------------------------------------------------------


 TOTAL NUMBER OF POINT SOURCES/SINKS PRESENT IN THE FLOW MODEL =  3540

 MAXIMUM STEPSIZE WHICH MEETS STABILITY CRITERION OF THE SINK & SOURCE TERM
 =  390.0    (WHEN MIN. R.F.=1)  AT K=   2, I=  21, J=  53

 MAXIMUM STEPSIZE WHICH MEETS STABILITY CRITERION OF THE DISPERSION TERM
 =  8.084    (WHEN MIN. R.F.=1)  AT K=   2, I=  22, J=  52


     1 CALLS TO GCG PACKAGE FOR TRANSPORT TIME STEP   1 IN FLOW TIME STEP   1 STRESS PERIOD   1
     6 TOTAL ITERATIONS
  MAXIMUM CONCENTRATION CHANGES FOR EACH ITERATION:
  MAX. CHANGE LAYER,ROW,COL MAX. CHANGE LAYER,ROW,COL MAX. CHANGE LAYER,ROW,COL MAX. CHANGE LAYER,ROW,COL MAX. CHANGE LAYER,ROW,COL
 ------------------------------------------------------------------------------------------------------------------------------------
    6.774     (  1,211,124)  0.6532     (  1,208,124)  0.6450E-01 (  1,209,125)  0.5474E-02 (  1,208,125)  0.4139E-03 (  1,213,126)
   0.4530E-04 (  1,209,126)


     1 CALLS TO GCG PACKAGE FOR TRANSPORT TIME STEP   1 IN FLOW TIME STEP   1 STRESS PERIOD   1
     5 TOTAL ITERATIONS
  MAXIMUM CONCENTRATION CHANGES FOR EACH ITERATION:
  MAX. CHANGE LAYER,ROW,COL MAX. CHANGE LAYER,ROW,COL MAX. CHANGE LAYER,ROW,COL MAX. CHANGE LAYER,ROW,COL MAX. CHANGE LAYER,ROW,COL
 ------------------------------------------------------------------------------------------------------------------------------------
   0.3161     (  1,131,254)  0.2683E-01 (  1,127,254)  0.2359E-02 (  1,128,256)  0.1535E-03 (  1,134,253)  0.1404E-04 (  1,127,253)


     1 CALLS TO GCG PACKAGE FOR TRANSPORT TIME STEP   1 IN FLOW TIME STEP   1 STRESS PERIOD   1
     4 TOTAL ITERATIONS
  MAXIMUM CONCENTRATION CHANGES FOR EACH ITERATION:
  MAX. CHANGE LAYER,ROW,COL MAX. CHANGE LAYER,ROW,COL MAX. CHANGE LAYER,ROW,COL MAX. CHANGE LAYER,ROW,COL MAX. CHANGE LAYER,ROW,COL
 ------------------------------------------------------------------------------------------------------------------------------------
   0.8148E-01 (  1,192, 53)  0.7437E-02 (  1,188, 53)  0.6042E-03 (  1,189, 54)  0.5019E-04 (  1,194, 54)



 >>>>>>>>>>>>>>>>>>>>>>>>>>>>>>>>>>>>>>>>>>>>>>>>>>>>>>>FOR COMPONENT NO. 01<<<<<<<<<<<<<<<<<<<<<<<<<<<<<<<<<<<<<<<<<<<<<<<<<<<<<<<


                                            -------------------------------------------
                                                      TRANSPORT STEP NO.    1
                                            -------------------------------------------

 TOTAL ELAPSED TIME SINCE BEGINNING OF SIMULATION =   10.00000       d
 .....................................................................

                     CUMMULATIVE MASS BUDGETS AT END OF TRANSPORT STEP    1, TIME STEP    1, STRESS PERIOD    1
                     ------------------------------------------------------------------------------------------

                                                             IN                           OUT
                                                      ----------------             ----------------
                               CONSTANT CONCENTRATION:    0.000000                    0.000000    
                                        CONSTANT HEAD:    0.000000                    0.000000    
                                             RECHARGE:    3867.677                    0.000000    
                                   EVAPOTRANSPIRATION:    0.000000                    0.000000    
                                MASS STORAGE (SOLUTE):    0.000000                   -3865.045    
                            ---------------------------------------------------------------------------
                                              [TOTAL]:    3867.677       mg          -3865.045       mg

                                                          NET (IN - OUT):    2.632324    
                                                   DISCREPANCY (PERCENT):   0.6808273E-01



 >>>>>>>>>>>>>>>>>>>>>>>>>>>>>>>>>>>>>>>>>>>>>>>>>>>>>>>FOR COMPONENT NO. 02<<<<<<<<<<<<<<<<<<<<<<<<<<<<<<<<<<<<<<<<<<<<<<<<<<<<<<<


                                            -------------------------------------------
                                                      TRANSPORT STEP NO.    1
                                            -------------------------------------------

 TOTAL ELAPSED TIME SINCE BEGINNING OF SIMULATION =   10.00000       d
 .....................................................................

                     CUMMULATIVE MASS BUDGETS AT END OF TRANSPORT STEP    1, TIME STEP    1, STRESS PERIOD    1
                     ------------------------------------------------------------------------------------------

                                                             IN                           OUT
                                                      ----------------             ----------------
                               CONSTANT CONCENTRATION:    0.000000                    0.000000    
                                        CONSTANT HEAD:    0.000000                    0.000000    
                                             RECHARGE:    252.1323                    0.000000    
                                   EVAPOTRANSPIRATION:    0.000000                    0.000000    
                                MASS STORAGE (SOLUTE):    0.000000                   -251.9608    
                            ---------------------------------------------------------------------------
                                              [TOTAL]:    252.1323       mg          -251.9608       mg

                                                          NET (IN - OUT):   0.1715698    
                                                   DISCREPANCY (PERCENT):   0.6807069E-01



 >>>>>>>>>>>>>>>>>>>>>>>>>>>>>>>>>>>>>>>>>>>>>>>>>>>>>>>FOR COMPONENT NO. 03<<<<<<<<<<<<<<<<<<<<<<<<<<<<<<<<<<<<<<<<<<<<<<<<<<<<<<<


                                            -------------------------------------------
                                                      TRANSPORT STEP NO.    1
                                            -------------------------------------------

 TOTAL ELAPSED TIME SINCE BEGINNING OF SIMULATION =   10.00000       d
 .....................................................................

                     CUMMULATIVE MASS BUDGETS AT END OF TRANSPORT STEP    1, TIME STEP    1, STRESS PERIOD    1
                     ------------------------------------------------------------------------------------------

                                                             IN                           OUT
                                                      ----------------             ----------------
                               CONSTANT CONCENTRATION:    0.000000                    0.000000    
                                        CONSTANT HEAD:    0.000000                    0.000000    
                                             RECHARGE:    10.81718                    0.000000    
                                   EVAPOTRANSPIRATION:    0.000000                    0.000000    
                                MASS STORAGE (SOLUTE):    0.000000                   -10.80936    
                            ---------------------------------------------------------------------------
                                              [TOTAL]:    10.81718       mg          -10.80936       mg

                                                          NET (IN - OUT):   0.7815361E-02
                                                   DISCREPANCY (PERCENT):   0.7227566E-01


                                          ================================================
                                                         TIME STEP NO.  002
                                          ================================================

 FROM TIME =   10.000     TO    20.000    



     1 CALLS TO GCG PACKAGE FOR TRANSPORT TIME STEP   1 IN FLOW TIME STEP   2 STRESS PERIOD   1
     5 TOTAL ITERATIONS
  MAXIMUM CONCENTRATION CHANGES FOR EACH ITERATION:
  MAX. CHANGE LAYER,ROW,COL MAX. CHANGE LAYER,ROW,COL MAX. CHANGE LAYER,ROW,COL MAX. CHANGE LAYER,ROW,COL MAX. CHANGE LAYER,ROW,COL
 ------------------------------------------------------------------------------------------------------------------------------------
    1.022     (  1,211,124)  0.8652E-01 (  1,208,124)  0.7730E-02 (  1,209,125)  0.7153E-03 (  1,208,125)  0.5436E-04 (  1,209,125)


     1 CALLS TO GCG PACKAGE FOR TRANSPORT TIME STEP   1 IN FLOW TIME STEP   2 STRESS PERIOD   1
     5 TOTAL ITERATIONS
  MAXIMUM CONCENTRATION CHANGES FOR EACH ITERATION:
  MAX. CHANGE LAYER,ROW,COL MAX. CHANGE LAYER,ROW,COL MAX. CHANGE LAYER,ROW,COL MAX. CHANGE LAYER,ROW,COL MAX. CHANGE LAYER,ROW,COL
 ------------------------------------------------------------------------------------------------------------------------------------
    1.017     (  1,131,254)  0.7841E-01 (  1,127,254)  0.6302E-02 (  1,128,256)  0.4213E-03 (  1,134,253)  0.4211E-04 (  1,127,253)


     1 CALLS TO GCG PACKAGE FOR TRANSPORT TIME STEP   1 IN FLOW TIME STEP   2 STRESS PERIOD   1
     5 TOTAL ITERATIONS
  MAXIMUM CONCENTRATION CHANGES FOR EACH ITERATION:
  MAX. CHANGE LAYER,ROW,COL MAX. CHANGE LAYER,ROW,COL MAX. CHANGE LAYER,ROW,COL MAX. CHANGE LAYER,ROW,COL MAX. CHANGE LAYER,ROW,COL
 ------------------------------------------------------------------------------------------------------------------------------------
    1.016     (  1,192, 53)  0.8053E-01 (  1,188, 53)  0.6477E-02 (  1,189, 55)  0.5309E-03 (  1,194, 54)  0.4137E-04 (  1,189, 55)



 >>>>>>>>>>>>>>>>>>>>>>>>>>>>>>>>>>>>>>>>>>>>>>>>>>>>>>>FOR COMPONENT NO. 01<<<<<<<<<<<<<<<<<<<<<<<<<<<<<<<<<<<<<<<<<<<<<<<<<<<<<<<


                                            -------------------------------------------
                                                      TRANSPORT STEP NO.    1
                                            -------------------------------------------

 TOTAL ELAPSED TIME SINCE BEGINNING OF SIMULATION =   20.00000       d
 .....................................................................

                     CUMMULATIVE MASS BUDGETS AT END OF TRANSPORT STEP    1, TIME STEP    2, STRESS PERIOD    1
                     ------------------------------------------------------------------------------------------

                                                             IN                           OUT
                                                      ----------------             ----------------
                               CONSTANT CONCENTRATION:    0.000000                    0.000000    
                                        CONSTANT HEAD:    0.000000                    0.000000    
                                             RECHARGE:    7735.354                    0.000000    
                                   EVAPOTRANSPIRATION:    0.000000                   0.1063315E-07
                                MASS STORAGE (SOLUTE):   0.3457289E-02               -7732.695    
                            ---------------------------------------------------------------------------
                                              [TOTAL]:    7735.358       mg          -7732.695       mg

                                                          NET (IN - OUT):    2.662598    
                                                   DISCREPANCY (PERCENT):   0.3442706E-01



 >>>>>>>>>>>>>>>>>>>>>>>>>>>>>>>>>>>>>>>>>>>>>>>>>>>>>>>FOR COMPONENT NO. 02<<<<<<<<<<<<<<<<<<<<<<<<<<<<<<<<<<<<<<<<<<<<<<<<<<<<<<<


                                            -------------------------------------------
                                                      TRANSPORT STEP NO.    1
                                            -------------------------------------------

 TOTAL ELAPSED TIME SINCE BEGINNING OF SIMULATION =   20.00000       d
 .....................................................................

                     CUMMULATIVE MASS BUDGETS AT END OF TRANSPORT STEP    1, TIME STEP    2, STRESS PERIOD    1
                     ------------------------------------------------------------------------------------------

                                                             IN                           OUT
                                                      ----------------             ----------------
                               CONSTANT CONCENTRATION:    0.000000                    0.000000    
                                        CONSTANT HEAD:    0.000000                    0.000000    
                                             RECHARGE:    504.2647                    0.000000    
                                   EVAPOTRANSPIRATION:    0.000000                   0.4680744E-09
                                MASS STORAGE (SOLUTE):   0.1285166E-03               -504.0924    
                            ---------------------------------------------------------------------------
                                              [TOTAL]:    504.2648       mg          -504.0924       mg

                                                          NET (IN - OUT):   0.1723938    
                                                   DISCREPANCY (PERCENT):   0.3419300E-01



 >>>>>>>>>>>>>>>>>>>>>>>>>>>>>>>>>>>>>>>>>>>>>>>>>>>>>>>FOR COMPONENT NO. 03<<<<<<<<<<<<<<<<<<<<<<<<<<<<<<<<<<<<<<<<<<<<<<<<<<<<<<<


                                            -------------------------------------------
                                                      TRANSPORT STEP NO.    1
                                            -------------------------------------------

 TOTAL ELAPSED TIME SINCE BEGINNING OF SIMULATION =   20.00000       d
 .....................................................................

                     CUMMULATIVE MASS BUDGETS AT END OF TRANSPORT STEP    1, TIME STEP    2, STRESS PERIOD    1
                     ------------------------------------------------------------------------------------------

                                                             IN                           OUT
                                                      ----------------             ----------------
                               CONSTANT CONCENTRATION:    0.000000                    0.000000    
                                        CONSTANT HEAD:    0.000000                    0.000000    
                                             RECHARGE:    21.63435                    0.000000    
                                   EVAPOTRANSPIRATION:    0.000000                   0.1941644E-09
                                MASS STORAGE (SOLUTE):   0.4082304E-04               -21.62646    
                            ---------------------------------------------------------------------------
                                              [TOTAL]:    21.63439       mg          -21.62646       mg

                                                          NET (IN - OUT):   0.7932663E-02
                                                   DISCREPANCY (PERCENT):   0.3667363E-01


                                          ================================================
                                                         TIME STEP NO.  003
                                          ================================================

 FROM TIME =   20.000     TO    30.000    



     1 CALLS TO GCG PACKAGE FOR TRANSPORT TIME STEP   1 IN FLOW TIME STEP   3 STRESS PERIOD   1
     5 TOTAL ITERATIONS
  MAXIMUM CONCENTRATION CHANGES FOR EACH ITERATION:
  MAX. CHANGE LAYER,ROW,COL MAX. CHANGE LAYER,ROW,COL MAX. CHANGE LAYER,ROW,COL MAX. CHANGE LAYER,ROW,COL MAX. CHANGE LAYER,ROW,COL
 ------------------------------------------------------------------------------------------------------------------------------------
   0.5092     (  1,211,124)  0.3859E-01 (  1,208,125)  0.3210E-02 (  1,209,127)  0.3092E-03 (  1,208,125)  0.2360E-04 (  1,209,125)


     1 CALLS TO GCG PACKAGE FOR TRANSPORT TIME STEP   1 IN FLOW TIME STEP   3 STRESS PERIOD   1
     5 TOTAL ITERATIONS
  MAXIMUM CONCENTRATION CHANGES FOR EACH ITERATION:
  MAX. CHANGE LAYER,ROW,COL MAX. CHANGE LAYER,ROW,COL MAX. CHANGE LAYER,ROW,COL MAX. CHANGE LAYER,ROW,COL MAX. CHANGE LAYER,ROW,COL
 ------------------------------------------------------------------------------------------------------------------------------------
   0.5046     (  1,131,254)  0.3572E-01 (  1,127,255)  0.2468E-02 (  1,128,256)  0.1895E-03 (  1,188, 54)  0.1931E-04 (  1,127,253)


     1 CALLS TO GCG PACKAGE FOR TRANSPORT TIME STEP   1 IN FLOW TIME STEP   3 STRESS PERIOD   1
     5 TOTAL ITERATIONS
  MAXIMUM CONCENTRATION CHANGES FOR EACH ITERATION:
  MAX. CHANGE LAYER,ROW,COL MAX. CHANGE LAYER,ROW,COL MAX. CHANGE LAYER,ROW,COL MAX. CHANGE LAYER,ROW,COL MAX. CHANGE LAYER,ROW,COL
 ------------------------------------------------------------------------------------------------------------------------------------
   0.5058     (  1,192, 53)  0.3533E-01 (  1,188, 53)  0.2810E-02 (  1,189, 55)  0.2156E-03 (  1,194, 54)  0.1585E-04 (  1,189, 55)



 >>>>>>>>>>>>>>>>>>>>>>>>>>>>>>>>>>>>>>>>>>>>>>>>>>>>>>>FOR COMPONENT NO. 01<<<<<<<<<<<<<<<<<<<<<<<<<<<<<<<<<<<<<<<<<<<<<<<<<<<<<<<


                                            -------------------------------------------
                                                      TRANSPORT STEP NO.    1
                                            -------------------------------------------

 TOTAL ELAPSED TIME SINCE BEGINNING OF SIMULATION =   30.00000       d
 .....................................................................

                     CUMMULATIVE MASS BUDGETS AT END OF TRANSPORT STEP    1, TIME STEP    3, STRESS PERIOD    1
                     ------------------------------------------------------------------------------------------

                                                             IN                           OUT
                                                      ----------------             ----------------
                               CONSTANT CONCENTRATION:    0.000000                    0.000000    
                                        CONSTANT HEAD:    0.000000                    0.000000    
                                             RECHARGE:    11603.03                    0.000000    
                                   EVAPOTRANSPIRATION:    0.000000                   0.1978687E-06
                                MASS STORAGE (SOLUTE):   0.2156072E-01               -11600.36    
                            ---------------------------------------------------------------------------
                                              [TOTAL]:    11603.05       mg          -11600.36       mg

                                                          NET (IN - OUT):    2.692383    
                                                   DISCREPANCY (PERCENT):   0.2320678E-01



 >>>>>>>>>>>>>>>>>>>>>>>>>>>>>>>>>>>>>>>>>>>>>>>>>>>>>>>FOR COMPONENT NO. 02<<<<<<<<<<<<<<<<<<<<<<<<<<<<<<<<<<<<<<<<<<<<<<<<<<<<<<<


                                            -------------------------------------------
                                                      TRANSPORT STEP NO.    1
                                            -------------------------------------------

 TOTAL ELAPSED TIME SINCE BEGINNING OF SIMULATION =   30.00000       d
 .....................................................................

                     CUMMULATIVE MASS BUDGETS AT END OF TRANSPORT STEP    1, TIME STEP    3, STRESS PERIOD    1
                     ------------------------------------------------------------------------------------------

                                                             IN                           OUT
                                                      ----------------             ----------------
                               CONSTANT CONCENTRATION:    0.000000                    0.000000    
                                        CONSTANT HEAD:    0.000000                    0.000000    
                                             RECHARGE:    756.3970                    0.000000    
                                   EVAPOTRANSPIRATION:    0.000000                   0.7273614E-08
                                MASS STORAGE (SOLUTE):   0.7767476E-03               -756.2248    
                            ---------------------------------------------------------------------------
                                              [TOTAL]:    756.3978       mg          -756.2248       mg

                                                          NET (IN - OUT):   0.1730347    
                                                   DISCREPANCY (PERCENT):   0.2287876E-01



 >>>>>>>>>>>>>>>>>>>>>>>>>>>>>>>>>>>>>>>>>>>>>>>>>>>>>>>FOR COMPONENT NO. 03<<<<<<<<<<<<<<<<<<<<<<<<<<<<<<<<<<<<<<<<<<<<<<<<<<<<<<<


                                            -------------------------------------------
                                                      TRANSPORT STEP NO.    1
                                            -------------------------------------------

 TOTAL ELAPSED TIME SINCE BEGINNING OF SIMULATION =   30.00000       d
 .....................................................................

                     CUMMULATIVE MASS BUDGETS AT END OF TRANSPORT STEP    1, TIME STEP    3, STRESS PERIOD    1
                     ------------------------------------------------------------------------------------------

                                                             IN                           OUT
                                                      ----------------             ----------------
                               CONSTANT CONCENTRATION:    0.000000                    0.000000    
                                        CONSTANT HEAD:    0.000000                    0.000000    
                                             RECHARGE:    32.45153                    0.000000    
                                   EVAPOTRANSPIRATION:    0.000000                   0.1586588E-08
                                MASS STORAGE (SOLUTE):   0.2462979E-03               -32.44371    
                            ---------------------------------------------------------------------------
                                              [TOTAL]:    32.45178       mg          -32.44371       mg

                                                          NET (IN - OUT):   0.8068085E-02
                                                   DISCREPANCY (PERCENT):   0.2486485E-01


                                          ================================================
                                                         TIME STEP NO.  004
                                          ================================================

 FROM TIME =   30.000     TO    40.000    



     1 CALLS TO GCG PACKAGE FOR TRANSPORT TIME STEP   1 IN FLOW TIME STEP   4 STRESS PERIOD   1
     5 TOTAL ITERATIONS
  MAXIMUM CONCENTRATION CHANGES FOR EACH ITERATION:
  MAX. CHANGE LAYER,ROW,COL MAX. CHANGE LAYER,ROW,COL MAX. CHANGE LAYER,ROW,COL MAX. CHANGE LAYER,ROW,COL MAX. CHANGE LAYER,ROW,COL
 ------------------------------------------------------------------------------------------------------------------------------------
   0.3379     (  1,211,124)  0.2338E-01 (  1,208,125)  0.1776E-02 (  1,209,127)  0.1742E-03 (  1,208,125)  0.1359E-04 (  1,209,125)


     1 CALLS TO GCG PACKAGE FOR TRANSPORT TIME STEP   1 IN FLOW TIME STEP   4 STRESS PERIOD   1
     5 TOTAL ITERATIONS
  MAXIMUM CONCENTRATION CHANGES FOR EACH ITERATION:
  MAX. CHANGE LAYER,ROW,COL MAX. CHANGE LAYER,ROW,COL MAX. CHANGE LAYER,ROW,COL MAX. CHANGE LAYER,ROW,COL MAX. CHANGE LAYER,ROW,COL
 ------------------------------------------------------------------------------------------------------------------------------------
   0.3333     (  1,131,254)  0.2200E-01 (  1,127,255)  0.1426E-02 (  1,126,255)  0.1159E-03 (  1,131,251)  0.1201E-04 (  1,127,256)


     1 CALLS TO GCG PACKAGE FOR TRANSPORT TIME STEP   1 IN FLOW TIME STEP   4 STRESS PERIOD   1
     5 TOTAL ITERATIONS
  MAXIMUM CONCENTRATION CHANGES FOR EACH ITERATION:
  MAX. CHANGE LAYER,ROW,COL MAX. CHANGE LAYER,ROW,COL MAX. CHANGE LAYER,ROW,COL MAX. CHANGE LAYER,ROW,COL MAX. CHANGE LAYER,ROW,COL
 ------------------------------------------------------------------------------------------------------------------------------------
   0.3348     (  1,192, 53)  0.2100E-01 (  1,188, 54)  0.1589E-02 (  1,189, 55)  0.1305E-03 (  1,188, 55)  0.8285E-05 (  1,189, 55)



 >>>>>>>>>>>>>>>>>>>>>>>>>>>>>>>>>>>>>>>>>>>>>>>>>>>>>>>FOR COMPONENT NO. 01<<<<<<<<<<<<<<<<<<<<<<<<<<<<<<<<<<<<<<<<<<<<<<<<<<<<<<<


                                            -------------------------------------------
                                                      TRANSPORT STEP NO.    1
                                            -------------------------------------------

 TOTAL ELAPSED TIME SINCE BEGINNING OF SIMULATION =   40.00000       d
 .....................................................................

                     CUMMULATIVE MASS BUDGETS AT END OF TRANSPORT STEP    1, TIME STEP    4, STRESS PERIOD    1
                     ------------------------------------------------------------------------------------------

                                                             IN                           OUT
                                                      ----------------             ----------------
                               CONSTANT CONCENTRATION:    0.000000                    0.000000    
                                        CONSTANT HEAD:    0.000000                    0.000000    
                                             RECHARGE:    15470.71                    0.000000    
                                   EVAPOTRANSPIRATION:    0.000000                   0.1071812E-05
                                MASS STORAGE (SOLUTE):   0.4880916E-01               -15468.03    
                            ---------------------------------------------------------------------------
                                              [TOTAL]:    15470.76       mg          -15468.03       mg

                                                          NET (IN - OUT):    2.728516    
                                                   DISCREPANCY (PERCENT):   0.1763815E-01



 >>>>>>>>>>>>>>>>>>>>>>>>>>>>>>>>>>>>>>>>>>>>>>>>>>>>>>>FOR COMPONENT NO. 02<<<<<<<<<<<<<<<<<<<<<<<<<<<<<<<<<<<<<<<<<<<<<<<<<<<<<<<


                                            -------------------------------------------
                                                      TRANSPORT STEP NO.    1
                                            -------------------------------------------

 TOTAL ELAPSED TIME SINCE BEGINNING OF SIMULATION =   40.00000       d
 .....................................................................

                     CUMMULATIVE MASS BUDGETS AT END OF TRANSPORT STEP    1, TIME STEP    4, STRESS PERIOD    1
                     ------------------------------------------------------------------------------------------

                                                             IN                           OUT
                                                      ----------------             ----------------
                               CONSTANT CONCENTRATION:    0.000000                    0.000000    
                                        CONSTANT HEAD:    0.000000                    0.000000    
                                             RECHARGE:    1008.529                    0.000000    
                                   EVAPOTRANSPIRATION:    0.000000                   0.3731524E-07
                                MASS STORAGE (SOLUTE):   0.1881224E-02               -1008.357    
                            ---------------------------------------------------------------------------
                                              [TOTAL]:    1008.531       mg          -1008.357       mg

                                                          NET (IN - OUT):   0.1741943    
                                                   DISCREPANCY (PERCENT):   0.1727357E-01



 >>>>>>>>>>>>>>>>>>>>>>>>>>>>>>>>>>>>>>>>>>>>>>>>>>>>>>>FOR COMPONENT NO. 03<<<<<<<<<<<<<<<<<<<<<<<<<<<<<<<<<<<<<<<<<<<<<<<<<<<<<<<


                                            -------------------------------------------
                                                      TRANSPORT STEP NO.    1
                                            -------------------------------------------

 TOTAL ELAPSED TIME SINCE BEGINNING OF SIMULATION =   40.00000       d
 .....................................................................

                     CUMMULATIVE MASS BUDGETS AT END OF TRANSPORT STEP    1, TIME STEP    4, STRESS PERIOD    1
                     ------------------------------------------------------------------------------------------

                                                             IN                           OUT
                                                      ----------------             ----------------
                               CONSTANT CONCENTRATION:    0.000000                    0.000000    
                                        CONSTANT HEAD:    0.000000                    0.000000    
                                             RECHARGE:    43.26871                    0.000000    
                                   EVAPOTRANSPIRATION:    0.000000                   0.7322857E-08
                                MASS STORAGE (SOLUTE):   0.5878136E-03               -43.26110    
                            ---------------------------------------------------------------------------
                                              [TOTAL]:    43.26929       mg          -43.26110       mg

                                                          NET (IN - OUT):   0.8197784E-02
                                                   DISCREPANCY (PERCENT):   0.1894776E-01


                                          ================================================
                                                         TIME STEP NO.  005
                                          ================================================

 FROM TIME =   40.000     TO    50.000    



     1 CALLS TO GCG PACKAGE FOR TRANSPORT TIME STEP   1 IN FLOW TIME STEP   5 STRESS PERIOD   1
     5 TOTAL ITERATIONS
  MAXIMUM CONCENTRATION CHANGES FOR EACH ITERATION:
  MAX. CHANGE LAYER,ROW,COL MAX. CHANGE LAYER,ROW,COL MAX. CHANGE LAYER,ROW,COL MAX. CHANGE LAYER,ROW,COL MAX. CHANGE LAYER,ROW,COL
 ------------------------------------------------------------------------------------------------------------------------------------
   0.2519     (  1,211,124)  0.1622E-01 (  1,208,125)  0.1119E-02 (  1,207,125)  0.1065E-03 (  1,208,127)  0.8583E-05 (  1,209,125)


     1 CALLS TO GCG PACKAGE FOR TRANSPORT TIME STEP   1 IN FLOW TIME STEP   5 STRESS PERIOD   1
     4 TOTAL ITERATIONS
  MAXIMUM CONCENTRATION CHANGES FOR EACH ITERATION:
  MAX. CHANGE LAYER,ROW,COL MAX. CHANGE LAYER,ROW,COL MAX. CHANGE LAYER,ROW,COL MAX. CHANGE LAYER,ROW,COL MAX. CHANGE LAYER,ROW,COL
 ------------------------------------------------------------------------------------------------------------------------------------
   0.2475     (  1,131,254)  0.1540E-01 (  1,127,255)  0.9425E-03 (  1,126,255)  0.8297E-04 (  1,131,251)


     1 CALLS TO GCG PACKAGE FOR TRANSPORT TIME STEP   1 IN FLOW TIME STEP   5 STRESS PERIOD   1
     4 TOTAL ITERATIONS
  MAXIMUM CONCENTRATION CHANGES FOR EACH ITERATION:
  MAX. CHANGE LAYER,ROW,COL MAX. CHANGE LAYER,ROW,COL MAX. CHANGE LAYER,ROW,COL MAX. CHANGE LAYER,ROW,COL MAX. CHANGE LAYER,ROW,COL
 ------------------------------------------------------------------------------------------------------------------------------------
   0.2487     (  1,191, 53)  0.1456E-01 (  1,192, 53)  0.1080E-02 (  1,194, 53)  0.8930E-04 (  1,188, 55)



 >>>>>>>>>>>>>>>>>>>>>>>>>>>>>>>>>>>>>>>>>>>>>>>>>>>>>>>FOR COMPONENT NO. 01<<<<<<<<<<<<<<<<<<<<<<<<<<<<<<<<<<<<<<<<<<<<<<<<<<<<<<<


                                            -------------------------------------------
                                                      TRANSPORT STEP NO.    1
                                            -------------------------------------------

 TOTAL ELAPSED TIME SINCE BEGINNING OF SIMULATION =   50.00000       d
 .....................................................................

                     CUMMULATIVE MASS BUDGETS AT END OF TRANSPORT STEP    1, TIME STEP    5, STRESS PERIOD    1
                     ------------------------------------------------------------------------------------------

                                                             IN                           OUT
                                                      ----------------             ----------------
                               CONSTANT CONCENTRATION:    0.000000                    0.000000    
                                        CONSTANT HEAD:    0.000000                    0.000000    
                                             RECHARGE:    19338.39                    0.000000    
                                   EVAPOTRANSPIRATION:    0.000000                   0.3464552E-05
                                MASS STORAGE (SOLUTE):   0.7908571E-01               -19335.70    
                            ---------------------------------------------------------------------------
                                              [TOTAL]:    19338.46       mg          -19335.70       mg

                                                          NET (IN - OUT):    2.761719    
                                                   DISCREPANCY (PERCENT):   0.1428198E-01



 >>>>>>>>>>>>>>>>>>>>>>>>>>>>>>>>>>>>>>>>>>>>>>>>>>>>>>>FOR COMPONENT NO. 02<<<<<<<<<<<<<<<<<<<<<<<<<<<<<<<<<<<<<<<<<<<<<<<<<<<<<<<


                                            -------------------------------------------
                                                      TRANSPORT STEP NO.    1
                                            -------------------------------------------

 TOTAL ELAPSED TIME SINCE BEGINNING OF SIMULATION =   50.00000       d
 .....................................................................

                     CUMMULATIVE MASS BUDGETS AT END OF TRANSPORT STEP    1, TIME STEP    5, STRESS PERIOD    1
                     ------------------------------------------------------------------------------------------

                                                             IN                           OUT
                                                      ----------------             ----------------
                               CONSTANT CONCENTRATION:    0.000000                    0.000000    
                                        CONSTANT HEAD:    0.000000                    0.000000    
                                             RECHARGE:    1260.662                    0.000000    
                                   EVAPOTRANSPIRATION:    0.000000                   0.1169270E-06
                                MASS STORAGE (SOLUTE):   0.3348502E-02               -1260.488    
                            ---------------------------------------------------------------------------
                                              [TOTAL]:    1260.665       mg          -1260.488       mg

                                                          NET (IN - OUT):   0.1770020    
                                                   DISCREPANCY (PERCENT):   0.1404135E-01



 >>>>>>>>>>>>>>>>>>>>>>>>>>>>>>>>>>>>>>>>>>>>>>>>>>>>>>>FOR COMPONENT NO. 03<<<<<<<<<<<<<<<<<<<<<<<<<<<<<<<<<<<<<<<<<<<<<<<<<<<<<<<


                                            -------------------------------------------
                                                      TRANSPORT STEP NO.    1
                                            -------------------------------------------

 TOTAL ELAPSED TIME SINCE BEGINNING OF SIMULATION =   50.00000       d
 .....................................................................

                     CUMMULATIVE MASS BUDGETS AT END OF TRANSPORT STEP    1, TIME STEP    5, STRESS PERIOD    1
                     ------------------------------------------------------------------------------------------

                                                             IN                           OUT
                                                      ----------------             ----------------
                               CONSTANT CONCENTRATION:    0.000000                    0.000000    
                                        CONSTANT HEAD:    0.000000                    0.000000    
                                             RECHARGE:    54.08588                    0.000000    
                                   EVAPOTRANSPIRATION:    0.000000                   0.2298549E-07
                                MASS STORAGE (SOLUTE):   0.9927675E-03               -54.07800    
                            ---------------------------------------------------------------------------
                                              [TOTAL]:    54.08688       mg          -54.07800       mg

                                                          NET (IN - OUT):   0.8876801E-02
                                                   DISCREPANCY (PERCENT):   0.1641346E-01


                                          ================================================
                                                         TIME STEP NO.  006
                                          ================================================

 FROM TIME =   50.000     TO    60.000    



     1 CALLS TO GCG PACKAGE FOR TRANSPORT TIME STEP   1 IN FLOW TIME STEP   6 STRESS PERIOD   1
     4 TOTAL ITERATIONS
  MAXIMUM CONCENTRATION CHANGES FOR EACH ITERATION:
  MAX. CHANGE LAYER,ROW,COL MAX. CHANGE LAYER,ROW,COL MAX. CHANGE LAYER,ROW,COL MAX. CHANGE LAYER,ROW,COL MAX. CHANGE LAYER,ROW,COL
 ------------------------------------------------------------------------------------------------------------------------------------
   0.2002     (  1,211,124)  0.1220E-01 (  1,208,125)  0.8108E-03 (  1,207,125)  0.7294E-04 (  1,208,127)


     1 CALLS TO GCG PACKAGE FOR TRANSPORT TIME STEP   1 IN FLOW TIME STEP   6 STRESS PERIOD   1
     4 TOTAL ITERATIONS
  MAXIMUM CONCENTRATION CHANGES FOR EACH ITERATION:
  MAX. CHANGE LAYER,ROW,COL MAX. CHANGE LAYER,ROW,COL MAX. CHANGE LAYER,ROW,COL MAX. CHANGE LAYER,ROW,COL MAX. CHANGE LAYER,ROW,COL
 ------------------------------------------------------------------------------------------------------------------------------------
   0.1961     (  1,131,255)  0.1163E-01 (  1,127,255)  0.7146E-03 (  1,134,253)  0.5925E-04 (  1,131,251)


     1 CALLS TO GCG PACKAGE FOR TRANSPORT TIME STEP   1 IN FLOW TIME STEP   6 STRESS PERIOD   1
     4 TOTAL ITERATIONS
  MAXIMUM CONCENTRATION CHANGES FOR EACH ITERATION:
  MAX. CHANGE LAYER,ROW,COL MAX. CHANGE LAYER,ROW,COL MAX. CHANGE LAYER,ROW,COL MAX. CHANGE LAYER,ROW,COL MAX. CHANGE LAYER,ROW,COL
 ------------------------------------------------------------------------------------------------------------------------------------
   0.1973     (  1,191, 53)  0.1252E-01 (  1,192, 53)  0.8517E-03 (  1,194, 53)  0.6320E-04 (  1,188, 55)



 >>>>>>>>>>>>>>>>>>>>>>>>>>>>>>>>>>>>>>>>>>>>>>>>>>>>>>>FOR COMPONENT NO. 01<<<<<<<<<<<<<<<<<<<<<<<<<<<<<<<<<<<<<<<<<<<<<<<<<<<<<<<


                                            -------------------------------------------
                                                      TRANSPORT STEP NO.    1
                                            -------------------------------------------

 TOTAL ELAPSED TIME SINCE BEGINNING OF SIMULATION =   60.00000       d
 .....................................................................

                     CUMMULATIVE MASS BUDGETS AT END OF TRANSPORT STEP    1, TIME STEP    6, STRESS PERIOD    1
                     ------------------------------------------------------------------------------------------

                                                             IN                           OUT
                                                      ----------------             ----------------
                               CONSTANT CONCENTRATION:    0.000000                    0.000000    
                                        CONSTANT HEAD:    0.000000                    0.000000    
                                             RECHARGE:    23206.06                    0.000000    
                                   EVAPOTRANSPIRATION:    0.000000                   0.8565909E-05
                                MASS STORAGE (SOLUTE):   0.1196244                   -23203.28    
                            ---------------------------------------------------------------------------
                                              [TOTAL]:    23206.18       mg          -23203.28       mg

                                                          NET (IN - OUT):    2.904297    
                                                   DISCREPANCY (PERCENT):   0.1251597E-01



 >>>>>>>>>>>>>>>>>>>>>>>>>>>>>>>>>>>>>>>>>>>>>>>>>>>>>>>FOR COMPONENT NO. 02<<<<<<<<<<<<<<<<<<<<<<<<<<<<<<<<<<<<<<<<<<<<<<<<<<<<<<<


                                            -------------------------------------------
                                                      TRANSPORT STEP NO.    1
                                            -------------------------------------------

 TOTAL ELAPSED TIME SINCE BEGINNING OF SIMULATION =   60.00000       d
 .....................................................................

                     CUMMULATIVE MASS BUDGETS AT END OF TRANSPORT STEP    1, TIME STEP    6, STRESS PERIOD    1
                     ------------------------------------------------------------------------------------------

                                                             IN                           OUT
                                                      ----------------             ----------------
                               CONSTANT CONCENTRATION:    0.000000                    0.000000    
                                        CONSTANT HEAD:    0.000000                    0.000000    
                                             RECHARGE:    1512.794                    0.000000    
                                   EVAPOTRANSPIRATION:    0.000000                   0.2804671E-06
                                MASS STORAGE (SOLUTE):   0.5269106E-02               -1512.619    
                            ---------------------------------------------------------------------------
                                              [TOTAL]:    1512.799       mg          -1512.619       mg

                                                          NET (IN - OUT):   0.1800537    
                                                   DISCREPANCY (PERCENT):   0.1190273E-01



 >>>>>>>>>>>>>>>>>>>>>>>>>>>>>>>>>>>>>>>>>>>>>>>>>>>>>>>FOR COMPONENT NO. 03<<<<<<<<<<<<<<<<<<<<<<<<<<<<<<<<<<<<<<<<<<<<<<<<<<<<<<<


                                            -------------------------------------------
                                                      TRANSPORT STEP NO.    1
                                            -------------------------------------------

 TOTAL ELAPSED TIME SINCE BEGINNING OF SIMULATION =   60.00000       d
 .....................................................................

                     CUMMULATIVE MASS BUDGETS AT END OF TRANSPORT STEP    1, TIME STEP    6, STRESS PERIOD    1
                     ------------------------------------------------------------------------------------------

                                                             IN                           OUT
                                                      ----------------             ----------------
                               CONSTANT CONCENTRATION:    0.000000                    0.000000    
                                        CONSTANT HEAD:    0.000000                    0.000000    
                                             RECHARGE:    64.90306                    0.000000    
                                   EVAPOTRANSPIRATION:    0.000000                   0.5666405E-07
                                MASS STORAGE (SOLUTE):   0.1477614E-02               -64.89495    
                            ---------------------------------------------------------------------------
                                              [TOTAL]:    64.90454       mg          -64.89495       mg

                                                          NET (IN - OUT):   0.9590149E-02
                                                   DISCREPANCY (PERCENT):   0.1477687E-01


                                          ================================================
                                                         TIME STEP NO.  007
                                          ================================================

 FROM TIME =   60.000     TO    70.000    



     1 CALLS TO GCG PACKAGE FOR TRANSPORT TIME STEP   1 IN FLOW TIME STEP   7 STRESS PERIOD   1
     4 TOTAL ITERATIONS
  MAXIMUM CONCENTRATION CHANGES FOR EACH ITERATION:
  MAX. CHANGE LAYER,ROW,COL MAX. CHANGE LAYER,ROW,COL MAX. CHANGE LAYER,ROW,COL MAX. CHANGE LAYER,ROW,COL MAX. CHANGE LAYER,ROW,COL
 ------------------------------------------------------------------------------------------------------------------------------------
   0.1656     (  1,211,124)  0.9692E-02 (  1,208,125)  0.6293E-03 (  1,207,125)  0.5072E-04 (  1,213,124)


     1 CALLS TO GCG PACKAGE FOR TRANSPORT TIME STEP   1 IN FLOW TIME STEP   7 STRESS PERIOD   1
     4 TOTAL ITERATIONS
  MAXIMUM CONCENTRATION CHANGES FOR EACH ITERATION:
  MAX. CHANGE LAYER,ROW,COL MAX. CHANGE LAYER,ROW,COL MAX. CHANGE LAYER,ROW,COL MAX. CHANGE LAYER,ROW,COL MAX. CHANGE LAYER,ROW,COL
 ------------------------------------------------------------------------------------------------------------------------------------
   0.1620     (  1,131,255)  0.9244E-02 (  1,127,255)  0.5850E-03 (  1,134,253)  0.4303E-04 (  1,132,250)


     1 CALLS TO GCG PACKAGE FOR TRANSPORT TIME STEP   1 IN FLOW TIME STEP   7 STRESS PERIOD   1
     4 TOTAL ITERATIONS
  MAXIMUM CONCENTRATION CHANGES FOR EACH ITERATION:
  MAX. CHANGE LAYER,ROW,COL MAX. CHANGE LAYER,ROW,COL MAX. CHANGE LAYER,ROW,COL MAX. CHANGE LAYER,ROW,COL MAX. CHANGE LAYER,ROW,COL
 ------------------------------------------------------------------------------------------------------------------------------------
   0.1628     (  1,191, 53)  0.1093E-01 (  1,192, 53)  0.6821E-03 (  1,194, 53)  0.4917E-04 (  1,193, 52)



 >>>>>>>>>>>>>>>>>>>>>>>>>>>>>>>>>>>>>>>>>>>>>>>>>>>>>>>FOR COMPONENT NO. 01<<<<<<<<<<<<<<<<<<<<<<<<<<<<<<<<<<<<<<<<<<<<<<<<<<<<<<<


                                            -------------------------------------------
                                                      TRANSPORT STEP NO.    1
                                            -------------------------------------------

 TOTAL ELAPSED TIME SINCE BEGINNING OF SIMULATION =   70.00000       d
 .....................................................................

                     CUMMULATIVE MASS BUDGETS AT END OF TRANSPORT STEP    1, TIME STEP    7, STRESS PERIOD    1
                     ------------------------------------------------------------------------------------------

                                                             IN                           OUT
                                                      ----------------             ----------------
                               CONSTANT CONCENTRATION:    0.000000                    0.000000    
                                        CONSTANT HEAD:    0.000000                    0.000000    
                                             RECHARGE:    27073.74                    0.000000    
                                   EVAPOTRANSPIRATION:    0.000000                   0.1789631E-04
                                MASS STORAGE (SOLUTE):   0.1689343                   -27070.86    
                            ---------------------------------------------------------------------------
                                              [TOTAL]:    27073.91       mg          -27070.86       mg

                                                          NET (IN - OUT):    3.052734    
                                                   DISCREPANCY (PERCENT):   0.1127619E-01



 >>>>>>>>>>>>>>>>>>>>>>>>>>>>>>>>>>>>>>>>>>>>>>>>>>>>>>>FOR COMPONENT NO. 02<<<<<<<<<<<<<<<<<<<<<<<<<<<<<<<<<<<<<<<<<<<<<<<<<<<<<<<


                                            -------------------------------------------
                                                      TRANSPORT STEP NO.    1
                                            -------------------------------------------

 TOTAL ELAPSED TIME SINCE BEGINNING OF SIMULATION =   70.00000       d
 .....................................................................

                     CUMMULATIVE MASS BUDGETS AT END OF TRANSPORT STEP    1, TIME STEP    7, STRESS PERIOD    1
                     ------------------------------------------------------------------------------------------

                                                             IN                           OUT
[...]
                                              [TOTAL]:    9901.428       mg          -9876.368       mg

                                                          NET (IN - OUT):    25.05957    
                                                   DISCREPANCY (PERCENT):   0.2534111    


                                          ================================================
                                                         TIME STEP NO.  010
                                          ================================================

 FROM TIME =   9100.0     TO    10000.    



     1 CALLS TO GCG PACKAGE FOR TRANSPORT TIME STEP   1 IN FLOW TIME STEP  10 STRESS PERIOD   3
    16 TOTAL ITERATIONS


     1 CALLS TO GCG PACKAGE FOR TRANSPORT TIME STEP   1 IN FLOW TIME STEP  10 STRESS PERIOD   3
    15 TOTAL ITERATIONS


     1 CALLS TO GCG PACKAGE FOR TRANSPORT TIME STEP   1 IN FLOW TIME STEP  10 STRESS PERIOD   3
    15 TOTAL ITERATIONS



 >>>>>>>>>>>>>>>>>>>>>>>>>>>>>>>>>>>>>>>>>>>>>>>>>>>>>>>FOR COMPONENT NO. 01<<<<<<<<<<<<<<<<<<<<<<<<<<<<<<<<<<<<<<<<<<<<<<<<<<<<<<<


                                            -------------------------------------------
                                                      TRANSPORT STEP NO.    1
                                            -------------------------------------------

 TOTAL ELAPSED TIME SINCE BEGINNING OF SIMULATION =   9483.467       d
 .....................................................................

                     CUMMULATIVE MASS BUDGETS AT END OF TRANSPORT STEP    1, TIME STEP   10, STRESS PERIOD    3
                     ------------------------------------------------------------------------------------------

                                                             IN                           OUT
                                                      ----------------             ----------------
                               CONSTANT CONCENTRATION:    0.000000                    0.000000    
                                        CONSTANT HEAD:    0.000000                  -0.6672843E-10
                                             RECHARGE:    3667898.                    0.000000    
                                   EVAPOTRANSPIRATION:    0.000000                    1.407791    
                                MASS STORAGE (SOLUTE):    18454.65                   -3682634.    
                            ---------------------------------------------------------------------------
                                              [TOTAL]:    3686353.       mg          -3682632.       mg

                                                          NET (IN - OUT):    3720.750    
                                                   DISCREPANCY (PERCENT):   0.1009840    



 >>>>>>>>>>>>>>>>>>>>>>>>>>>>>>>>>>>>>>>>>>>>>>>>>>>>>>>FOR COMPONENT NO. 02<<<<<<<<<<<<<<<<<<<<<<<<<<<<<<<<<<<<<<<<<<<<<<<<<<<<<<<


                                            -------------------------------------------
                                                      TRANSPORT STEP NO.    1
                                            -------------------------------------------

 TOTAL ELAPSED TIME SINCE BEGINNING OF SIMULATION =   9483.467       d
 .....................................................................

                     CUMMULATIVE MASS BUDGETS AT END OF TRANSPORT STEP    1, TIME STEP   10, STRESS PERIOD    3
                     ------------------------------------------------------------------------------------------

                                                             IN                           OUT
                                                      ----------------             ----------------
                               CONSTANT CONCENTRATION:    0.000000                    0.000000    
                                        CONSTANT HEAD:    0.000000                  -0.5947188E-11
                                             RECHARGE:    239109.0                    0.000000    
                                   EVAPOTRANSPIRATION:    0.000000                   0.9263699E-01
                                MASS STORAGE (SOLUTE):    1184.133                   -239942.6    
                            ---------------------------------------------------------------------------
                                              [TOTAL]:    240293.2       mg          -239942.5       mg

                                                          NET (IN - OUT):    350.7188    
                                                   DISCREPANCY (PERCENT):   0.1460611    



 >>>>>>>>>>>>>>>>>>>>>>>>>>>>>>>>>>>>>>>>>>>>>>>>>>>>>>>FOR COMPONENT NO. 03<<<<<<<<<<<<<<<<<<<<<<<<<<<<<<<<<<<<<<<<<<<<<<<<<<<<<<<


                                            -------------------------------------------
                                                      TRANSPORT STEP NO.    1
                                            -------------------------------------------

 TOTAL ELAPSED TIME SINCE BEGINNING OF SIMULATION =   9483.467       d
 .....................................................................

                     CUMMULATIVE MASS BUDGETS AT END OF TRANSPORT STEP    1, TIME STEP   10, STRESS PERIOD    3
                     ------------------------------------------------------------------------------------------

                                                             IN                           OUT
                                                      ----------------             ----------------
                               CONSTANT CONCENTRATION:    0.000000                    0.000000    
                                        CONSTANT HEAD:    0.000000                  -0.5460496E-16
                                             RECHARGE:    10258.43                    0.000000    
                                   EVAPOTRANSPIRATION:    0.000000                   0.3561646E-01
                                MASS STORAGE (SOLUTE):    58.29969                   -10289.27    
                            ---------------------------------------------------------------------------
                                              [TOTAL]:    10316.73       mg          -10289.23       mg

                                                          NET (IN - OUT):    27.50195    
                                                   DISCREPANCY (PERCENT):   0.2669320    
     1 CALLS TO GCG PACKAGE FOR TRANSPORT TIME STEP   2 IN FLOW TIME STEP  10 STRESS PERIOD   3
    16 TOTAL ITERATIONS
     1 CALLS TO GCG PACKAGE FOR TRANSPORT TIME STEP   2 IN FLOW TIME STEP  10 STRESS PERIOD   3
    15 TOTAL ITERATIONS
     1 CALLS TO GCG PACKAGE FOR TRANSPORT TIME STEP   2 IN FLOW TIME STEP  10 STRESS PERIOD   3
    15 TOTAL ITERATIONS



 >>>>>>>>>>>>>>>>>>>>>>>>>>>>>>>>>>>>>>>>>>>>>>>>>>>>>>>FOR COMPONENT NO. 01<<<<<<<<<<<<<<<<<<<<<<<<<<<<<<<<<<<<<<<<<<<<<<<<<<<<<<<


                                            -------------------------------------------
                                                      TRANSPORT STEP NO.    2
                                            -------------------------------------------

 TOTAL ELAPSED TIME SINCE BEGINNING OF SIMULATION =   9866.934       d
 .....................................................................

                     CUMMULATIVE MASS BUDGETS AT END OF TRANSPORT STEP    2, TIME STEP   10, STRESS PERIOD    3
                     ------------------------------------------------------------------------------------------

                                                             IN                           OUT
                                                      ----------------             ----------------
                               CONSTANT CONCENTRATION:    0.000000                    0.000000    
                                        CONSTANT HEAD:    0.000000                  -0.1228506E-09
                                             RECHARGE:    3816211.                    0.000000    
                                   EVAPOTRANSPIRATION:    0.000000                    1.507821    
                                MASS STORAGE (SOLUTE):    18459.74                   -3830543.    
                            ---------------------------------------------------------------------------
                                              [TOTAL]:    3834671.       mg          -3830542.       mg

                                                          NET (IN - OUT):    4129.000    
                                                   DISCREPANCY (PERCENT):   0.1077335    



 >>>>>>>>>>>>>>>>>>>>>>>>>>>>>>>>>>>>>>>>>>>>>>>>>>>>>>>FOR COMPONENT NO. 02<<<<<<<<<<<<<<<<<<<<<<<<<<<<<<<<<<<<<<<<<<<<<<<<<<<<<<<


                                            -------------------------------------------
                                                      TRANSPORT STEP NO.    2
                                            -------------------------------------------

 TOTAL ELAPSED TIME SINCE BEGINNING OF SIMULATION =   9866.934       d
 .....................................................................

                     CUMMULATIVE MASS BUDGETS AT END OF TRANSPORT STEP    2, TIME STEP   10, STRESS PERIOD    3
                     ------------------------------------------------------------------------------------------

                                                             IN                           OUT
                                                      ----------------             ----------------
                               CONSTANT CONCENTRATION:    0.000000                    0.000000    
                                        CONSTANT HEAD:    0.000000                  -0.1093791E-10
                                             RECHARGE:    248777.5                    0.000000    
                                   EVAPOTRANSPIRATION:    0.000000                   0.1024908    
                                MASS STORAGE (SOLUTE):    1184.601                   -249590.2    
                            ---------------------------------------------------------------------------
                                              [TOTAL]:    249962.1       mg          -249590.1       mg

                                                          NET (IN - OUT):    371.9531    
                                                   DISCREPANCY (PERCENT):   0.1489146    



 >>>>>>>>>>>>>>>>>>>>>>>>>>>>>>>>>>>>>>>>>>>>>>>>>>>>>>>FOR COMPONENT NO. 03<<<<<<<<<<<<<<<<<<<<<<<<<<<<<<<<<<<<<<<<<<<<<<<<<<<<<<<


                                            -------------------------------------------
                                                      TRANSPORT STEP NO.    2
                                            -------------------------------------------

 TOTAL ELAPSED TIME SINCE BEGINNING OF SIMULATION =   9866.934       d
 .....................................................................

                     CUMMULATIVE MASS BUDGETS AT END OF TRANSPORT STEP    2, TIME STEP   10, STRESS PERIOD    3
                     ------------------------------------------------------------------------------------------

                                                             IN                           OUT
                                                      ----------------             ----------------
                               CONSTANT CONCENTRATION:    0.000000                    0.000000    
                                        CONSTANT HEAD:    0.000000                  -0.1095380E-15
                                             RECHARGE:    10673.24                    0.000000    
                                   EVAPOTRANSPIRATION:    0.000000                   0.3984636E-01
                                MASS STORAGE (SOLUTE):    58.31137                   -10701.67    
                            ---------------------------------------------------------------------------
                                              [TOTAL]:    10731.55       mg          -10701.63       mg

                                                          NET (IN - OUT):    29.91211    
                                                   DISCREPANCY (PERCENT):   0.2791196    
     1 CALLS TO GCG PACKAGE FOR TRANSPORT TIME STEP   3 IN FLOW TIME STEP  10 STRESS PERIOD   3
     9 TOTAL ITERATIONS
  MAXIMUM CONCENTRATION CHANGES FOR EACH ITERATION:
  MAX. CHANGE LAYER,ROW,COL MAX. CHANGE LAYER,ROW,COL MAX. CHANGE LAYER,ROW,COL MAX. CHANGE LAYER,ROW,COL MAX. CHANGE LAYER,ROW,COL
 ------------------------------------------------------------------------------------------------------------------------------------
   0.5065E-01 (  1,209,124)  0.3378E-01 (  1,210,124)  0.1244E-01 (  1,210,121)  0.6329E-02 (  1,210,127)  0.2657E-02 (  1,209,127)
   0.9908E-03 (  1,207,126)  0.4452E-03 (  1,208,126)  0.1742E-03 (  1,209,126)  0.8678E-04 (  1,209,125)
     1 CALLS TO GCG PACKAGE FOR TRANSPORT TIME STEP   3 IN FLOW TIME STEP  10 STRESS PERIOD   3
     9 TOTAL ITERATIONS
  MAXIMUM CONCENTRATION CHANGES FOR EACH ITERATION:
  MAX. CHANGE LAYER,ROW,COL MAX. CHANGE LAYER,ROW,COL MAX. CHANGE LAYER,ROW,COL MAX. CHANGE LAYER,ROW,COL MAX. CHANGE LAYER,ROW,COL
 ------------------------------------------------------------------------------------------------------------------------------------
   0.7384E-01 (  1,131,254)  0.2542E-01 (  1,131,257)  0.9441E-02 (  1,130,258)  0.3712E-02 (  1,128,252)  0.1875E-02 (  1,131,254)
   0.7249E-03 (  1,126,255)  0.2705E-03 (  1,125,255)  0.1123E-03 (  1,131,256)  0.3999E-04 (  1,121,254)
     1 CALLS TO GCG PACKAGE FOR TRANSPORT TIME STEP   3 IN FLOW TIME STEP  10 STRESS PERIOD   3
     9 TOTAL ITERATIONS
  MAXIMUM CONCENTRATION CHANGES FOR EACH ITERATION:
  MAX. CHANGE LAYER,ROW,COL MAX. CHANGE LAYER,ROW,COL MAX. CHANGE LAYER,ROW,COL MAX. CHANGE LAYER,ROW,COL MAX. CHANGE LAYER,ROW,COL
 ------------------------------------------------------------------------------------------------------------------------------------
   0.5211E-01 (  1,193, 55)  0.3488E-01 (  1,190, 53)  0.1474E-01 (  1,190, 51)  0.5841E-02 (  1,190, 55)  0.2285E-02 (  1,192, 53)
   0.7314E-03 (  1,185, 54)  0.3396E-03 (  1,188, 54)  0.1600E-03 (  1,189, 54)  0.6688E-04 (  1,191, 59)



 >>>>>>>>>>>>>>>>>>>>>>>>>>>>>>>>>>>>>>>>>>>>>>>>>>>>>>>FOR COMPONENT NO. 01<<<<<<<<<<<<<<<<<<<<<<<<<<<<<<<<<<<<<<<<<<<<<<<<<<<<<<<


                                            -------------------------------------------
                                                      TRANSPORT STEP NO.    3
                                            -------------------------------------------

 TOTAL ELAPSED TIME SINCE BEGINNING OF SIMULATION =   10000.00       d
 .....................................................................

                     CUMMULATIVE MASS BUDGETS AT END OF TRANSPORT STEP    3, TIME STEP   10, STRESS PERIOD    3
                     ------------------------------------------------------------------------------------------

                                                             IN                           OUT
                                                      ----------------             ----------------
                               CONSTANT CONCENTRATION:    0.000000                    0.000000    
                                        CONSTANT HEAD:    0.000000                  -0.1458946E-09
                                             RECHARGE:    3867677.                    0.000000    
                                   EVAPOTRANSPIRATION:    0.000000                    1.545204    
                                MASS STORAGE (SOLUTE):    22151.65                   -3885512.    
                            ---------------------------------------------------------------------------
                                              [TOTAL]:    3889828.       mg          -3885510.       mg

                                                          NET (IN - OUT):    4318.500    
                                                   DISCREPANCY (PERCENT):   0.1110820    



 >>>>>>>>>>>>>>>>>>>>>>>>>>>>>>>>>>>>>>>>>>>>>>>>>>>>>>>FOR COMPONENT NO. 02<<<<<<<<<<<<<<<<<<<<<<<<<<<<<<<<<<<<<<<<<<<<<<<<<<<<<<<


                                            -------------------------------------------
                                                      TRANSPORT STEP NO.    3
                                            -------------------------------------------

 TOTAL ELAPSED TIME SINCE BEGINNING OF SIMULATION =   10000.00       d
 .....................................................................

                     CUMMULATIVE MASS BUDGETS AT END OF TRANSPORT STEP    3, TIME STEP   10, STRESS PERIOD    3
                     ------------------------------------------------------------------------------------------

                                                             IN                           OUT
                                                      ----------------             ----------------
                               CONSTANT CONCENTRATION:    0.000000                    0.000000    
                                        CONSTANT HEAD:    0.000000                  -0.1298716E-10
                                             RECHARGE:    252132.5                    0.000000    
                                   EVAPOTRANSPIRATION:    0.000000                   0.1061323    
                                MASS STORAGE (SOLUTE):    1423.194                   -253178.5    
                            ---------------------------------------------------------------------------
                                              [TOTAL]:    253555.7       mg          -253178.4       mg

                                                          NET (IN - OUT):    377.2812    
                                                   DISCREPANCY (PERCENT):   0.1489070    



 >>>>>>>>>>>>>>>>>>>>>>>>>>>>>>>>>>>>>>>>>>>>>>>>>>>>>>>FOR COMPONENT NO. 03<<<<<<<<<<<<<<<<<<<<<<<<<<<<<<<<<<<<<<<<<<<<<<<<<<<<<<<


                                            -------------------------------------------
                                                      TRANSPORT STEP NO.    3
                                            -------------------------------------------

 TOTAL ELAPSED TIME SINCE BEGINNING OF SIMULATION =   10000.00       d
 .....................................................................

                     CUMMULATIVE MASS BUDGETS AT END OF TRANSPORT STEP    3, TIME STEP   10, STRESS PERIOD    3
                     ------------------------------------------------------------------------------------------

                                                             IN                           OUT
                                                      ----------------             ----------------
                               CONSTANT CONCENTRATION:    0.000000                    0.000000    
                                        CONSTANT HEAD:    0.000000                  -0.1312330E-15
                                             RECHARGE:    10817.18                    0.000000    
                                   EVAPOTRANSPIRATION:    0.000000                   0.4141323E-01
                                MASS STORAGE (SOLUTE):    69.47514                   -10856.12    
                            ---------------------------------------------------------------------------
                                              [TOTAL]:    10886.65       mg          -10856.08       mg

                                                          NET (IN - OUT):    30.57227    
                                                   DISCREPANCY (PERCENT):   0.2812183    
  ----- 
 | M T |
 | 3 D | END OF MODEL OUTPUT
  ----- 
